   73
 SCF done    -151.69007539      0.00000000
C         -3.203838425861   -1.632239198034    0.000000000000
C          1.632239198034   -3.203838425861    0.000000000000
C          3.203838425861    1.632239198034    0.000000000000
C         -1.632239198034    3.203838425861    0.000000000000
C         -3.593748234287   -0.101229950263    0.000000000000
C          0.101229950263   -3.593748234287    0.000000000000
C          3.593748234287    0.101229950263    0.000000000000
C         -0.101229950263    3.593748234287    0.000000000000
N         -3.036418508120    0.384279811192   -1.242249389647
N         -0.384279811192   -3.036418508120   -1.242249389647
N          3.036418508120   -0.384279811192   -1.242249389647
N          0.384279811192    3.036418508120    1.242249389647
N         -3.036418508120    0.384279811192    1.242249389647
N         -0.384279811192   -3.036418508120    1.242249389647
N          3.036418508120   -0.384279811192    1.242249389647
N          0.384279811192    3.036418508120   -1.242249389647
N         -2.482628780213   -1.792189119446   -1.242859389347
N          1.792189119446   -2.482628780213   -1.242859389347
N          2.482628780213    1.792189119446   -1.242859389347
N         -1.792189119446    2.482628780213    1.242859389347
N         -2.482628780213   -1.792189119446    1.242859389347
N          1.792189119446   -2.482628780213    1.242859389347
N          2.482628780213    1.792189119446    1.242859389347
N         -1.792189119446    2.482628780213   -1.242859389347
C         -2.489768776704   -0.634999688006   -2.023859005619
C          0.634999688006   -2.489768776704   -2.023859005619
C          2.489768776704    0.634999688006   -2.023859005619
C         -0.634999688006    2.489768776704    2.023859005619
C         -2.489768776704   -0.634999688006    2.023859005619
C          0.634999688006   -2.489768776704    2.023859005619
C          2.489768776704    0.634999688006    2.023859005619
C         -0.634999688006    2.489768776704   -2.023859005619
O         -2.123538956644   -0.541209734088   -3.171178441908
O          0.541209734088   -2.123538956644   -3.171178441908
O          2.123538956644    0.541209734088   -3.171178441908
O         -0.541209734088    2.123538956644    3.171178441908
O         -2.123538956644   -0.541209734088    3.171178441908
O          0.541209734088   -2.123538956644    3.171178441908
O          2.123538956644    0.541209734088    3.171178441908
O         -0.541209734088    2.123538956644   -3.171178441908
C         -2.977378537128    1.767199131724   -1.672619178194
C         -1.767199131724   -2.977378537128   -1.672619178194
C          2.977378537128   -1.767199131724   -1.672619178194
C          1.767199131724    2.977378537128    1.672619178194
C         -2.977378537128    1.767199131724    1.672619178194
C         -1.767199131724   -2.977378537128    1.672619178194
C          2.977378537128   -1.767199131724    1.672619178194
C          1.767199131724    2.977378537128   -1.672619178194
H         -3.869438098833    2.296458871683   -1.318099352380
H         -2.296458871683   -3.869438098833   -1.318099352380
H          3.869438098833   -2.296458871683   -1.318099352380
H          2.296458871683    3.869438098833    1.318099352380
H         -3.869438098833    2.296458871683    1.318099352380
H         -2.296458871683   -3.869438098833    1.318099352380
H          3.869438098833   -2.296458871683    1.318099352380
H          2.296458871683    3.869438098833   -1.318099352380
H         -2.960708545318    1.756439137011   -2.765748641108
H         -1.756439137011   -2.960708545318   -2.765748641108
H          2.960708545318   -1.756439137011   -2.765748641108
H          1.756439137011    2.960708545318    2.765748641108
H         -2.960708545318    1.756439137011    2.765748641108
H         -1.756439137011   -2.960708545318    2.765748641108
H          2.960708545318   -1.756439137011    2.765748641108
H          1.756439137011    2.960708545318   -2.765748641108
H         -4.683847698690    0.050819975031    0.000000000000
H         -0.050819975031   -4.683847698690    0.000000000000
H          4.683847698690   -0.050819975031    0.000000000000
H          0.050819975031    4.683847698690    0.000000000000
H         -4.088557991173   -2.286988876336    0.000000000000
H          2.286988876336   -4.088557991173    0.000000000000
H          4.088557991173    2.286988876336    0.000000000000
H         -2.286988876336    4.088557991173    0.000000000000
AR         0.000000000000    0.000000000000    0.000000000000
   73
 SCF done    -151.70390028      0.09160704
C         -3.187036316285   -1.620436897717   -0.000000000849
C          1.620436896165   -3.187036318832   -0.000000002268
C          3.187036317098    1.620436897677    0.000000002528
C         -1.620436896836    3.187036317965    0.000000000581
C         -3.573361931144   -0.103641723986   -0.000000001469
C          0.103641726448   -3.573361932724   -0.000000000596
C          3.573361931827    0.103641725680    0.000000002864
C         -0.103641726199    3.573361932327   -0.000000000791
N         -3.006314283369    0.385729954714   -1.230590692755
N         -0.385729960097   -3.006314279820   -1.230590702532
N          3.006314281653   -0.385729969905   -1.230590701616
N          0.385729965239    3.006314281108    1.230590701527
N         -3.006314284218    0.385729966933    1.230590694618
N         -0.385729954121   -3.006314276883    1.230590706296
N          3.006314281961   -0.385729953272    1.230590695176
N          0.385729954852    3.006314279323   -1.230590700725
N         -2.455369931038   -1.778967679533   -1.231057004717
N          1.778967665722   -2.455369931237   -1.231057014945
N          2.455369931231    1.778967662351   -1.231057016356
N         -1.778967663158    2.455369931954    1.231057014918
N         -2.455369932246   -1.778967670610    1.231057008194
N          1.778967673797   -2.455369925887    1.231057019171
N          2.455369931076    1.778967677673    1.231057006441
N         -1.778967677634    2.455369927663   -1.231057012697
C         -2.462948775280   -0.628204080608   -2.005667380360
C          0.628204095723   -2.462948785716   -2.005667340270
C          2.462948780977    0.628204104898   -2.005667347470
C         -0.628204101143    2.462948782797    2.005667344757
C         -2.462948773314   -0.628204095352    2.005667375705
C          0.628204086614   -2.462948791654    2.005667330585
C          2.462948778797    0.628204081096    2.005667370017
C         -0.628204082970    2.462948784591   -2.005667352964
O         -2.120784581757   -0.540676199069   -3.148402934501
O          0.540676194895   -2.120784574329   -3.148402959652
O          2.120784576220    0.540676193585   -3.148402954848
O         -0.540676194105    2.120784575484    3.148402956774
O         -2.120784581505   -0.540676196277    3.148402937207
O          0.540676196264   -2.120784571924    3.148402965550
O          2.120784579681    0.540676198593    3.148402941044
O         -0.540676197688    2.120784576288   -3.148402951573
C         -2.968986143193    1.762245867654   -1.662885172792
C         -1.762245863473   -2.968986144493   -1.662885171831
C          2.968986148647   -1.762245857780   -1.662885170409
C          1.762245861139    2.968986145005    1.662885171307
C         -2.968986148966    1.762245859137    1.662885172327
C         -1.762245864332   -2.968986147607    1.662885172136
C          2.968986144139   -1.762245868356    1.662885171583
C          1.762245864053    2.968986149387   -1.662885172321
H         -3.862658995697    2.292410841430   -1.309673806011
H         -2.292410841816   -3.862658995702   -1.309673805980
H          3.862658995517   -2.292410841815   -1.309673806118
H          2.292410841937    3.862658995821    1.309673805947
H         -3.862658995417    2.292410841629    1.309673806090
H         -2.292410841490   -3.862658995115    1.309673806224
H          3.862658995472   -2.292410841239    1.309673806177
H          2.292410841234    3.862658994908   -1.309673806328
H         -2.935444102519    1.741901413715   -2.758819180965
H         -1.741901413741   -2.935444102567   -2.758819181180
H          2.935444102257   -1.741901414128   -2.758819181463
H          1.741901413888    2.935444102529    2.758819181301
H         -2.935444102209    1.741901414140    2.758819181049
H         -1.741901413674   -2.935444102368    2.758819181065
H          2.935444102416   -1.741901413704    2.758819181197
H          1.741901413822    2.935444102179   -2.758819181004
H         -4.668074696702    0.050101940346    0.000000000130
H         -0.050101940337   -4.668074696472   -0.000000000028
H          4.668074696625   -0.050101940383   -0.000000000211
H          0.050101940370    4.668074696534    0.000000000108
H         -4.074881202797   -2.279016859642   -0.000000000018
H          2.279016859545   -4.074881202617    0.000000000147
H          4.074881202717    2.279016859544   -0.000000000011
H         -2.279016859554    4.074881202668   -0.000000000117
AR         0.000000000004   -0.000000000002    0.000000000000
   73
 SCF done    -151.70741263      0.03023781
C         -3.174550367724   -1.611313181550   -0.000000001273
C          1.611313181748   -3.174550375608   -0.000000000230
C          3.174550370165    1.611313180191    0.000000004105
C         -1.611313180722    3.174550373355   -0.000000001545
C         -3.558116438892   -0.105722507672   -0.000000000976
C          0.105722510986   -3.558116445814    0.000000000933
C          3.558116442032    0.105722507354    0.000000002420
C         -0.105722508961    3.558116444416   -0.000000001158
N         -2.980545807073    0.385138492977   -1.220969898055
N         -0.385138496034   -2.980545807174   -1.220969911355
N          2.980545807255   -0.385138503704   -1.220969906759
N          0.385138500484    2.980545809007    1.220969907694
N         -2.980545807084    0.385138502681    1.220969900180
N         -0.385138493389   -2.980545807674    1.220969906628
N          2.980545807405   -0.385138490196    1.220969900076
N          0.385138494226    2.980545807472   -1.220969903359
N         -2.432824890261   -1.765975628074   -1.221258958957
N          1.765975620090   -2.432824891862   -1.221258973918
N          2.432824889348    1.765975618601   -1.221258968761
N         -1.765975617388    2.432824893319    1.221258969700
N         -2.432824889568   -1.765975621484    1.221258963104
N          1.765975630745   -2.432824889633    1.221258967743
N          2.432824890428    1.765975630702    1.221258959770
N         -1.765975630039    2.432824890402   -1.221258963691
C         -2.448406597917   -0.624524061460   -1.997200284398
C          0.624524077667   -2.448406614023   -1.997200221896
C          2.448406600898    0.624524085697   -1.997200253716
C         -0.624524084363    2.448406606668    1.997200239315
C         -2.448406594961   -0.624524077757    1.997200280630
C          0.624524063942   -2.448406607028    1.997200245928
C          2.448406601638    0.624524056700    1.997200274304
C         -0.624524061264    2.448406602890   -1.997200262599
O         -2.111262558363   -0.538440266227   -3.139291531955
O          0.538440252490   -2.111262537192   -3.139291513378
O          2.111262547534    0.538440253274   -3.139291509128
O         -0.538440252598    2.111262540810    3.139291509441
O         -2.111262559879   -0.538440257756    3.139291530492
O          0.538440260409   -2.111262534917    3.139291486496
O          2.111262554886    0.538440267000    3.139291523367
O         -0.538440264562    2.111262544009   -3.139291506261
C         -2.957144514953    1.755251499829   -1.655745439373
C         -1.755251497431   -2.957144517423   -1.655745437446
C          2.957144522704   -1.755251488149   -1.655745440373
C          1.755251494045    2.957144516847    1.655745438137
C         -2.957144523320    1.755251488048    1.655745439216
C         -1.755251496854   -2.957144518990    1.655745442369
C          2.957144516407   -1.755251502464    1.655745441300
C          1.755251495543    2.957144521713   -1.655745442258
H         -3.850816508579    2.285400118112   -1.304478907894
H         -2.285400117532   -3.850816510473   -1.304478909754
H          3.850816506559   -2.285400120509   -1.304478911129
H          2.285400119076    3.850816509922    1.304478912027
H         -3.850816505426    2.285400121767    1.304478906313
H         -2.285400115477   -3.850816507259    1.304478905773
H          3.850816507856   -2.285400119097    1.304478907654
H          2.285400119177    3.850816504654   -1.304478903149
H         -2.912108485926    1.728406041451   -2.753467835574
H         -1.728406038617   -2.912108485944   -2.753467835625
H          2.912108482157   -1.728406040650   -2.753467839726
H          1.728406039360    2.912108483554    2.753467836456
H         -2.912108485566    1.728406043029    2.753467836420
H         -1.728406039309   -2.912108487050    2.753467838533
H          2.912108485205   -1.728406040699    2.753467837832
H          1.728406041690    2.912108487247   -2.753467838624
H         -4.654026985007    0.059035220941    0.000000002087
H         -0.059035230581   -4.654026987133    0.000000000117
H          4.654026986481   -0.059035225110   -0.000000003843
H          0.059035228248    4.654026987538    0.000000001593
H         -4.058057897326   -2.280306190891   -0.000000000274
H          2.280306200701   -4.058057894798    0.000000001951
H          4.058057894849    2.280306194283    0.000000000683
H         -2.280306197067    4.058057895529   -0.000000002374
AR        -0.000000004423    0.000000001456   -0.000000000001
   73
 SCF done    -151.70764720      0.01294560
C         -3.169895130194   -1.609123703051   -0.000000002359
C          1.609123702841   -3.169895133177    0.000000001348
C          3.169895131280    1.609123702977    0.000000003845
C         -1.609123702772    3.169895131065   -0.000000002237
C         -3.553061276702   -0.105431375627    0.000000000024
C          0.105431376179   -3.553061278506    0.000000001959
C          3.553061277233    0.105431373023    0.000000000794
C         -0.105431375041    3.553061277325   -0.000000001227
N         -2.973124535050    0.384945361068   -1.219549439052
N         -0.384945363800   -2.973124535101   -1.219549448361
N          2.973124534985   -0.384945368163   -1.219549445056
N          0.384945366340    2.973124535381    1.219549445043
N         -2.973124533539    0.384945365571    1.219549441346
N         -0.384945362400   -2.973124534340    1.219549444675
N          2.973124534912   -0.384945361429    1.219549440344
N          0.384945364922    2.973124533832   -1.219549442320
N         -2.426244742319   -1.762157053764   -1.219748036483
N          1.762157053385   -2.426244742635   -1.219748045980
N          2.426244741831    1.762157052380   -1.219748040428
N         -1.762157049862    2.426244743542    1.219748042873
N         -2.426244741446   -1.762157051549    1.219748037834
N          1.762157059195   -2.426244740470    1.219748039935
N          2.426244742549    1.762157057524    1.219748036215
N         -1.762157056048    2.426244742238   -1.219748038129
C         -2.443473957038   -0.623262715244   -1.997096594861
C          0.623262722564   -2.443473954794   -1.997096558170
C          2.443473952830    0.623262728816   -1.997096584414
C         -0.623262725290    2.443473950796    1.997096571694
C         -2.443473953890   -0.623262725744    1.997096591048
C          0.623262712330   -2.443473946929    1.997096580189
C          2.443473956224    0.623262709364    1.997096590752
C         -0.623262711291    2.443473949046   -1.997096587838
O         -2.107435372466   -0.537531235113   -3.141210743558
O          0.537531217011   -2.107435336661   -3.141210709835
O          2.107435362524    0.537531221672   -3.141210730502
O         -0.537531217450    2.107435343545    3.141210716700
O         -2.107435370690   -0.537531225632    3.141210742290
O          0.537531228714   -2.107435341533    3.141210723982
O          2.107435364913    0.537531235172    3.141210737864
O         -0.537531232910    2.107435351604   -3.141210730921
C         -2.953184950312    1.752915664421   -1.657142491917
C         -1.752915666413   -2.953184950690   -1.657142491780
C          2.953184956823   -1.752915658328   -1.657142494929
C          1.752915663171    2.953184951068    1.657142492361
C         -2.953184956290    1.752915657055    1.657142491631
C         -1.752915665738   -2.953184952481    1.657142493304
C          2.953184951767   -1.752915669579    1.657142492658
C          1.752915664313    2.953184955195   -1.657142493453
H         -3.847329555205    2.283394039319   -1.308984155348
H         -2.283394035503   -3.847329556984   -1.308984156512
H          3.847329552062   -2.283394040082   -1.308984157717
H          2.283394037470    3.847329555058    1.308984161055
H         -3.847329552353    2.283394041502    1.308984152177
H         -2.283394036297   -3.847329555190    1.308984151141
H          3.847329554706   -2.283394038756    1.308984153105
H          2.283394039043    3.847329552234   -1.308984147952
H         -2.903391795330    1.723315881757   -2.754793133815
H         -1.723315879787   -2.903391793355   -2.754793134835
H          2.903391792016   -1.723315880321   -2.754793137477
H          1.723315879892    2.903391790078    2.754793134434
H         -2.903391796320    1.723315882138    2.754793134239
H         -1.723315883556   -2.903391797469    2.754793134840
H          2.903391797131   -1.723315881727    2.754793133346
H          1.723315884849    2.903391799277   -2.754793134314
H         -4.648103836534    0.064610318711    0.000000001819
H         -0.064610323086   -4.648103835566    0.000000000066
H          4.648103837074   -0.064610321073   -0.000000003776
H          0.064610322408    4.648103836633    0.000000001069
H         -4.050045705537   -2.282442976102    0.000000000036
H          2.282442979483   -4.050045703654    0.000000001543
H          4.050045705512    2.282442976353    0.000000000524
H         -2.282442977149    4.050045704418   -0.000000002379
AR         0.000000005121   -0.000000000342   -0.000000002164
   73
 SCF done    -151.70766672      0.00300990
C         -3.169916109370   -1.609254111545   -0.000000001142
C          1.609254111562   -3.169916112652    0.000000001482
C          3.169916111308    1.609254111511    0.000000002025
C         -1.609254111428    3.169916110452   -0.000000001541
C         -3.553202280321   -0.105347229235   -0.000000000292
C          0.105347230128   -3.553202282453    0.000000001889
C          3.553202281440    0.105347228164    0.000000000419
C         -0.105347229171    3.553202281037   -0.000000000857
N         -2.972617467923    0.384776770415   -1.219501882299
N         -0.384776771644   -2.972617470355   -1.219501886443
N          2.972617469007   -0.384776773846   -1.219501884160
N          0.384776772940    2.972617469542    1.219501884459
N         -2.972617466593    0.384776773064    1.219501882901
N         -0.384776770780   -2.972617469062    1.219501885241
N          2.972617468212   -0.384776770164    1.219501882882
N          0.384776772471    2.972617467129   -1.219501883699
N         -2.425754253181   -1.761696624953   -1.219650625460
N          1.761696625776   -2.425754256310   -1.219650631425
N          2.425754255385    1.761696624477   -1.219650628504
N         -1.761696623919    2.425754256231    1.219650629807
N         -2.425754252940   -1.761696623379    1.219650627485
N          1.761696627833   -2.425754254315    1.219650627537
N          2.425754255041    1.761696626437    1.219650625732
N         -1.761696625774    2.425754254556   -1.219650626809
C         -2.443679380311   -0.623300813104   -1.997477564874
C          0.623300815115   -2.443679373297   -1.997477548776
C          2.443679377717    0.623300819659   -1.997477563527
C         -0.623300817140    2.443679371942    1.997477556829
C         -2.443679378194   -0.623300818284    1.997477562388
C          0.623300809673   -2.443679370831    1.997477559268
C          2.443679380221    0.623300809041    1.997477562003
C         -0.623300809943    2.443679372864   -1.997477561776
O         -2.106917441373   -0.537409333684   -3.141718359202
O          0.537409317824   -2.106917411103   -3.141718339529
O          2.106917436924    0.537409321844   -3.141718355517
O         -0.537409318127    2.106917418146    3.141718345727
O         -2.106917438747   -0.537409324014    3.141718357343
O          0.537409327953   -2.106917413608    3.141718349562
O          2.106917434678    0.537409334301    3.141718357046
O         -0.537409330888    2.106917421709   -3.141718353755
C         -2.952327476499    1.752413915802   -1.658429811100
C         -1.752413916960   -2.952327477341   -1.658429810774
C          2.952327480891   -1.752413912156   -1.658429812598
C          1.752413915340    2.952327476642    1.658429811504
C         -2.952327480913    1.752413911419    1.658429810779
C         -1.752413916510   -2.952327478048    1.658429811583
C          2.952327476974   -1.752413919293    1.658429810644
C          1.752413915888    2.952327479472   -1.658429810941
H         -3.847113860724    2.283327836427   -1.312939375902
H         -2.283327834764   -3.847113861910   -1.312939375161
H          3.847113859590   -2.283327837955   -1.312939376228
H          2.283327835836    3.847113861378    1.312939380166
H         -3.847113859330    2.283327837728    1.312939371972
H         -2.283327835479   -3.847113860220    1.312939371581
H          3.847113861042   -2.283327835982    1.312939372865
H          2.283327836588    3.847113859461   -1.312939368885
H         -2.900186727584    1.721436433205   -2.755802433598
H         -1.721436433370   -2.900186726196   -2.755802433746
H          2.900186726782   -1.721436432222   -2.755802435314
H          1.721436432131    2.900186722536    2.755802434100
H         -2.900186730766    1.721436433557    2.755802433703
H         -1.721436436466   -2.900186730369    2.755802434065
H          2.900186729888   -1.721436434375    2.755802432870
H          1.721436437165    2.900186732827   -2.755802433195
H         -4.647613292023    0.066593636482    0.000000000866
H         -0.066593637892   -4.647613292525    0.000000000210
H          4.647613293098   -0.066593637105   -0.000000001953
H          0.066593637523    4.647613292313    0.000000000212
H         -4.048554081386   -2.284010696768    0.000000000658
H          2.284010697618   -4.048554082609    0.000000000687
H          4.048554084044    2.284010695261   -0.000000000177
H         -2.284010696122    4.048554082243   -0.000000001009
AR        -0.000000007051    0.000000001998   -0.000000000319
   73
 SCF done    -151.70767212      0.00099883
C         -3.170161504475   -1.609462450523    0.000000000201
C          1.609462450807   -3.170161507986    0.000000001070
C          3.170161505563    1.609462450805    0.000000000622
C         -1.609462451388    3.170161506871   -0.000000000498
C         -3.553584942734   -0.105308311451    0.000000000076
C          0.105308312480   -3.553584945598    0.000000001302
C          3.553584943136    0.105308311699    0.000000000385
C         -0.105308312278    3.553584944480   -0.000000000506
N         -2.972817146946    0.384729249271   -1.219590152400
N         -0.384729249788   -2.972817151119   -1.219590152238
N          2.972817147381   -0.384729250578   -1.219590151242
N          0.384729249428    2.972817149822    1.219590151340
N         -2.972817146278    0.384729251351    1.219590151395
N         -0.384729249402   -2.972817148798    1.219590152583
N          2.972817147321   -0.384729249280    1.219590151987
N          0.384729250349    2.972817146890   -1.219590151936
N         -2.425810097194   -1.761672864829   -1.219690588155
N          1.761672866253   -2.425810102404   -1.219690590627
N          2.425810100082    1.761672864540   -1.219690590312
N         -1.761672865994    2.425810102026    1.219690589917
N         -2.425810097855   -1.761672863991    1.219690590148
N          1.761672865363   -2.425810099791    1.219690588368
N          2.425810099051    1.761672865374    1.219690587847
N         -1.761672866061    2.425810098975   -1.219690588318
C         -2.443932795141   -0.623345196350   -1.997607216506
C          0.623345194890   -2.443932787382   -1.997607215388
C          2.443932792657    0.623345197599   -1.997607219425
C         -0.623345197374    2.443932788512    1.997607218678
C         -2.443932792989   -0.623345197054    1.997607216852
C          0.623345193302   -2.443932787164    1.997607215324
C          2.443932793163    0.623345194312    1.997607216762
C         -0.623345194726    2.443932789009   -1.997607214425
O         -2.106982802524   -0.537419454467   -3.141865229501
O          0.537419443226   -2.106982781470   -3.141865220511
O          2.106982800736    0.537419446497   -3.141865229335
O         -0.537419444469    2.106982787703    3.141865224634
O         -2.106982800222   -0.537419447009    3.141865226845
O          0.537419449454   -2.106982780297    3.141865222352
O          2.106982796818    0.537419455512    3.141865225182
O         -0.537419451293    2.106982784894   -3.141865223654
C         -2.951986622744    1.752219373158   -1.659557311142
C         -1.752219374084   -2.951986622999   -1.659557310585
C          2.951986623717   -1.752219371893   -1.659557311538
C          1.752219372258    2.951986622127    1.659557311713
C         -2.951986624838    1.752219372508    1.659557310861
C         -1.752219373793   -2.951986623235    1.659557311274
C          2.951986621698   -1.752219375156    1.659557310519
C          1.752219373713    2.951986623353   -1.659557310191
H         -3.847415708750    2.283577166856   -1.316460682983
H         -2.283577167261   -3.847415708440   -1.316460681631
H          3.847415708444   -2.283577167186   -1.316460682765
H          2.283577166907    3.847415708764    1.316460686012
H         -3.847415709233    2.283577166206    1.316460679680
H         -2.283577167471   -3.847415707965    1.316460679528
H          3.847415708626   -2.283577166364    1.316460680355
H          2.283577166074    3.847415708955   -1.316460677845
H         -2.897651635152    1.719951296293   -2.756690561364
H         -1.719951296889   -2.897651635237   -2.756690560105
H          2.897651636209   -1.719951294811   -2.756690560870
H          1.719951294643    2.897651631463    2.756690561215
H         -2.897651639890    1.719951296168    2.756690560634
H         -1.719951298456   -2.897651638638    2.756690561288
H          2.897651636960   -1.719951297513    2.756690560632
H          1.719951298215    2.897651640936   -2.756690560668
H         -4.647682315700    0.067038298894    0.000000000415
H         -0.067038299001   -4.647682317842    0.000000000508
H          4.647682315763   -0.067038299161   -0.000000000618
H          0.067038298638    4.647682316652   -0.000000000450
H         -4.048267364511   -2.284509803634    0.000000000702
H          2.284509803864   -4.048267367151    0.000000000095
H          4.048267366637    2.284509802753   -0.000000000519
H         -2.284509803864    4.048267367138   -0.000000000078
AR         0.000000016943   -0.000000003598   -0.000000000972
   73
 SCF done    -151.70767325      0.00059363
C         -3.170250908284   -1.609539828985    0.000000000619
C          1.609539830123   -3.170250911940    0.000000000259
C          3.170250909993    1.609539828980   -0.000000000283
C         -1.609539829099    3.170250911192    0.000000000147
C         -3.553750335673   -0.105303464234   -0.000000000016
C          0.105303465688   -3.553750339075    0.000000000651
C          3.553750336758    0.105303464278    0.000000000076
C         -0.105303464177    3.553750337776   -0.000000000017
N         -2.973054861594    0.384744700021   -1.219628510889
N         -0.384744699710   -2.973054866196   -1.219628509320
N          2.973054862175   -0.384744701069   -1.219628508799
N          0.384744700377    2.973054864322    1.219628509030
N         -2.973054860811    0.384744701400    1.219628509138
N         -0.384744699578   -2.973054863620    1.219628509586
N          2.973054863140   -0.384744700501    1.219628510234
N          0.384744701351    2.973054862004   -1.219628509522
N         -2.425907408273   -1.761743710870   -1.219697339014
N          1.761743712534   -2.425907414309   -1.219697340234
N          2.425907412105    1.761743710642   -1.219697340759
N         -1.761743711508    2.425907413396    1.219697339952
N         -2.425907409380   -1.761743710596    1.219697340483
N          1.761743711166   -2.425907411402    1.219697338264
N          2.425907410859    1.761743710678    1.219697338444
N         -1.761743710819    2.425907410501   -1.219697338656
C         -2.444142691116   -0.623382231096   -1.997576193623
C          0.623382229819   -2.444142686194   -1.997576195511
C          2.444142690370    0.623382230473   -1.997576196536
C         -0.623382230070    2.444142686898    1.997576196367
C         -2.444142688974   -0.623382230138    1.997576195008
C          0.623382229531   -2.444142685022    1.997576192972
C          2.444142690074    0.623382229987    1.997576195004
C         -0.623382228987    2.444142686210   -1.997576191872
O         -2.107285179013   -0.537482748956   -3.141819189540
O          0.537482742204   -2.107285165836   -3.141819186440
O          2.107285179178    0.537482743782   -3.141819190512
O         -0.537482742055    2.107285169541    3.141819188284
O         -2.107285177375   -0.537482743841    3.141819189003
O          0.537482745246   -2.107285162661    3.141819183952
O          2.107285176823    0.537482749245    3.141819188749
O         -0.537482744577    2.107285165649   -3.141819184135
C         -2.951856107457    1.752148007172   -1.660022842928
C         -1.752148007024   -2.951856108758   -1.660022842182
C          2.951856108780   -1.752148007392   -1.660022842901
C          1.752148007031    2.951856107620    1.660022843162
C         -2.951856108483    1.752148007921    1.660022842215
C         -1.752148006806   -2.951856108510    1.660022842573
C          2.951856108132   -1.752148008329    1.660022842048
C          1.752148008400    2.951856108210   -1.660022841933
H         -3.847570291377    2.283720040807   -1.318011991638
H         -2.283720041708   -3.847570291604   -1.318011990374
H          3.847570292839   -2.283720040878   -1.318011991540
H          2.283720042113    3.847570291567    1.318011993672
H         -3.847570292379    2.283720040333    1.318011989134
H         -2.283720041090   -3.847570291311    1.318011988870
H          3.847570292331   -2.283720041135    1.318011989229
H          2.283720041211    3.847570291960   -1.318011987881
H         -2.896396162070    1.719219294644   -2.757057168910
H         -1.719219294494   -2.896396163655   -2.757057167566
H          2.896396164426   -1.719219293758   -2.757057168017
H          1.719219293741    2.896396160219    2.757057168457
H         -2.896396165875    1.719219295026    2.757057167882
H         -1.719219295131   -2.896396166018    2.757057168444
H          2.896396164826   -1.719219296253    2.757057167948
H          1.719219296670    2.896396167286   -2.757057168179
H         -4.647846311281    0.066793370377    0.000000000227
H         -0.066793369395   -4.647846314487    0.000000000664
H          4.647846312335   -0.066793370743   -0.000000000387
H          0.066793370775    4.647846313146   -0.000000000430
H         -4.048423360679   -2.284433997679    0.000000000370
H          2.284433998524   -4.048423364141   -0.000000000027
H          4.048423363009    2.284433996849   -0.000000000438
H         -2.284433997007    4.048423364072   -0.000000000012
AR        -0.000000031329    0.000000007005   -0.000000000097
   73
 SCF done    -151.70767352      0.00036813
C         -3.170204215173   -1.609541333591    0.000000000725
C          1.609541333626   -3.170204216424   -0.000000000197
C          3.170204213684    1.609541334126   -0.000000000394
C         -1.609541335398    3.170204216412    0.000000000309
C         -3.553748974864   -0.105295150358    0.000000000071
C          0.105295150131   -3.553748976187    0.000000000226
C          3.553748973039    0.105295150715    0.000000000113
C         -0.105295151800    3.553748975713    0.000000000147
N         -2.973185674450    0.384772644255   -1.219645416823
N         -0.384772644974   -2.973185676084   -1.219645415515
N          2.973185671042   -0.384772644471   -1.219645414852
N          0.384772642867    2.973185675094    1.219645415432
N         -2.973185673287    0.384772644936    1.219645415370
N         -0.384772644948   -2.973185674033    1.219645415564
N          2.973185672999   -0.384772644032    1.219645416581
N          0.384772643346    2.973185673649   -1.219645415651
N         -2.425929135657   -1.761787653170   -1.219691810781
N          1.761787653379   -2.425929138881   -1.219691811549
N          2.425929135799    1.761787654024   -1.219691811921
N         -1.761787655642    2.425929138759    1.219691811439
N         -2.425929136978   -1.761787653261    1.219691811880
N          1.761787652493   -2.425929136269    1.219691810108
N          2.425929134774    1.761787653718    1.219691810331
N         -1.761787654804    2.425929136649   -1.219691810520
C         -2.444273968906   -0.623402526285   -1.997541578651
C          0.623402524583   -2.444273964679   -1.997541579175
C          2.444273965724    0.623402526283   -1.997541579800
C         -0.623402526849    2.444273965544    1.997541579540
C         -2.444273967351   -0.623402525402    1.997541579756
C          0.623402524480   -2.444273962977    1.997541577355
C          2.444273966013    0.623402526595    1.997541579649
C         -0.623402526380    2.444273964533   -1.997541577098
O         -2.107560906271   -0.537538153181   -3.141803124079
O          0.537538148286   -2.107560896177   -3.141803121515
O          2.107560903660    0.537538151254   -3.141803124665
O         -0.537538151120    2.107560898433    3.141803122245
O         -2.107560904782   -0.537538150350    3.141803124036
O          0.537538149134   -2.107560893269    3.141803119959
O          2.107560903155    0.537538153636    3.141803124255
O         -0.537538151301    2.107560896002   -3.141803120217
C         -2.951790274024    1.752113864690   -1.660186628976
C         -1.752113865317   -2.951790273433   -1.660186628462
C          2.951790271919   -1.752113864620   -1.660186628966
C          1.752113862963    2.951790273186    1.660186629272
C         -2.951790274322    1.752113865445    1.660186628385
C         -1.752113865321   -2.951790273067    1.660186628560
C          2.951790272231   -1.752113864412    1.660186628312
C          1.752113863741    2.951790273575   -1.660186628249
H         -3.847602031701    2.283778082479   -1.318582340868
H         -2.283778084501   -3.847602030189   -1.318582340270
H          3.847602030258   -2.283778081789   -1.318582341087
H          2.283778081815    3.847602030776    1.318582342357
H         -3.847602032373    2.283778082254    1.318582339308
H         -2.283778083650   -3.847602030166    1.318582339246
H          3.847602029667   -2.283778082548    1.318582339208
H          2.283778081360    3.847602031016   -1.318582338392
H         -2.895852629718    1.718905495653   -2.757190365095
H         -1.718905496084   -2.895852629334   -2.757190364365
H          2.895852628288   -1.718905494452   -2.757190364627
H          1.718905493192    2.895852627657    2.757190364946
H         -2.895852631901    1.718905496091    2.757190364399
H         -1.718905496432   -2.895852630884    2.757190364737
H          2.895852629221   -1.718905496366    2.757190364452
H          1.718905495259    2.895852632202   -2.757190364506
H         -4.647931678617    0.066504304177    0.000000000267
H         -0.066504304413   -4.647931680086    0.000000000605
H          4.647931677172   -0.066504304033   -0.000000000444
H          0.066504303100    4.647931679503   -0.000000000315
H         -4.048552894806   -2.284269712296    0.000000000028
H          2.284269712355   -4.048552896059    0.000000000223
H          4.048552893900    2.284269712712   -0.000000000186
H         -2.284269713709    4.048552896583   -0.000000000180
AR         0.000000069166   -0.000000015515   -0.000000001008
