    73
       -152.14438709
C          -3.14391719987203   -1.59965541627160    0.00871101749033
C           1.59965666676382   -3.14391249943135    0.00871171732916
C           3.14391786897052    1.59965956858330    0.00871053191567
C          -1.59965834898899    3.14392248762956    0.00870993783313
C          -3.52592169203721   -0.10137737424363    0.00870362198897
C           0.10137944368705   -3.52591915151118    0.00870416416317
C           3.52592574221825    0.10138205230490    0.00870290093197
C          -0.10137993481348    3.52592819308081    0.00870246014253
N          -2.97508710997487    0.38084562493233   -1.23226113957422
N          -0.38084359775395   -2.97508628833588   -1.23226191381950
N           2.97508810456720   -0.38084217293519   -1.23226066836518
N           0.38084404606281    2.97508935280369   -1.23226007463858
N          -2.42949289725706   -1.75927134990728   -1.23229843705112
N           1.75927305961722   -2.42949119187027   -1.23229897173594
N           2.42949246906192    1.75927449723843   -1.23229759293341
N          -1.75927291324641    2.42949467534430   -1.23229725758074
C          -2.42529653971461   -0.61857033663553   -1.99762511725577
C           0.61857178434672   -2.42529546226753   -1.99762574971954
C           2.42529691440578    0.61857297696203   -1.99762447477424
C          -0.61857166767452    2.42529850011747   -1.99762402366299
O          -2.11001401147370   -0.53818416585078   -3.15329485190275
O           0.53818639832088   -2.11001326396390   -3.15329579129446
O           2.11001361049339    0.53818761242041   -3.15329387702873
O          -0.53818559797982    2.11001495301817   -3.15329312573101
C          -2.94311150369675    1.74695677970199   -1.66321393136065
C          -1.74695505187638   -2.94311012502084   -1.66321440158238
C           2.94311183479225   -1.74695360745117   -1.66321422176039
C           1.74695528210675    2.94311322397254   -1.66321373974100
H          -3.83620817659282    2.27699326595831   -1.31080880006001
H          -2.27699141816020   -3.83620623162847   -1.31080785823138
H           3.83620808467913   -2.27699014231392   -1.31080820306431
H           2.27699212738830    3.83620990357113   -1.31080910491901
H          -2.88996005109981    1.71541095835690   -2.76026641801574
H          -1.71540970653845   -2.88995988291942   -2.76026693376726
H           2.88996151168957   -1.71540747200026   -2.76026674420337
H           1.71540871727013    2.88996168574456   -2.76026622213241
H          -4.62241709885987    0.06747507205914    0.00337973165787
H          -0.06747065988915   -4.62241488146730    0.00338004990081
H           4.62242125935972   -0.06746903688035    0.00337519569447
H           0.06747348719864    4.62242333119954    0.00337551424320
H          -4.02572268766760   -2.27287950827431    0.00338114196018
H           2.27288131522807   -4.02571761820333    0.00338500603189
H           4.02572144742032    2.27288618824559    0.00338180249143
H          -2.27288433017470    4.02572642865280    0.00337859703962
N          -2.96859772807637    0.38214051342405    1.22898352234088
N          -0.38213914081412   -2.96859741558192    1.22898436072090
N           2.96860892638233   -0.38213489471670    1.22898670967948
N           0.38213643284679    2.96860851212015    1.22898566279724
N          -2.42322341961694   -1.75728952930881    1.22907172457834
N           1.75728892963080   -2.42321348405428    1.22906931176037
N           2.42322071447518    1.75729106979630    1.22907010438185
N          -1.75729149845331    2.42322995239431    1.22907231787842
C          -2.32134946733467   -0.59205002703063    1.96997628896841
C           0.59204638524690   -2.32133265037879    1.96997149338839
C           2.32136707928710    0.59205547128584    1.96998146056101
C          -0.59205884599097    2.32138290857880    1.96998595819900
O          -2.03611728850264   -0.51930247531198    3.13186285319919
O           0.51930212740082   -2.03610388030682    3.13186005572734
O           2.03612963870497    0.51931012430330    3.13186583783507
O          -0.51931025023790    2.03614200978494    3.13186835232541
C          -2.93573114791473    1.74258265768211    1.66075804269301
C          -1.74258104881647   -2.93573064480428    1.66075849551087
C           2.93573281671673   -1.74257828035404    1.66075833767185
C           1.74258002077318    2.93573323284361    1.66075788224781
H          -3.83488798728204    2.27622109206716    1.32835500160367
H          -2.27622104688767   -3.83488736761808    1.32835757550700
H           3.83488689407977   -2.27622224526962    1.32835665484291
H           2.27622205971160    3.83488763302338    1.32835405414686
H          -2.86119019339547    1.69831845953707    2.75563354635612
H          -1.69831557337258   -2.86118629539880    2.75563371941247
H           2.86118858808004   -1.69831512352622    2.75563366082113
H           1.69831806639593    2.86119245795463    2.75563347979123
F          -0.00002302334230   -0.00025193364909    1.08378979014551
