    73
       -148.64773688
C          -3.16533463130439   -1.60773269021800    0.00000000139220
C           1.60773268923292   -3.16533463213361    0.00000000141018
C           3.16533463209919    1.60773269034139   -0.00000000002819
C          -1.60773268940810    3.16533462911279   -0.00000000153387
C          -3.54867516534979   -0.10458099475800   -0.00000000149414
C           0.10458099445799   -3.54867516268442    0.00000000209325
C           3.54867516397819    0.10458099343125    0.00000000270817
C          -0.10458099452575    3.54867516383228   -0.00000000203815
N          -2.96579891301590    0.38490678075763   -1.21795977672920
N          -0.38490677828309   -2.96579890700277   -1.21795977803775
N           2.96579890033161   -0.38490677950335   -1.21795977258826
N           0.38490678231879    2.96579891074074    1.21795977610761
N          -2.96579890226093    0.38490678246891    1.21795976833485
N          -0.38490677871304   -2.96579889870180    1.21795977428305
N           2.96579891136210   -0.38490677691963    1.21795977425898
N           0.38490678341972    2.96579890234132   -1.21795977332602
N          -2.41924014508405   -1.75829586486929   -1.21796745433370
N           1.75829587142453   -2.41924015110263   -1.21796746305430
N           2.41924015300974    1.75829587026312   -1.21796746380961
N          -1.75829586646916    2.41924015185144    1.21796746094979
N          -2.41924015311457   -1.75829586818983    1.21796746010649
N           1.75829586818632   -2.41924014233228    1.21796745860412
N           2.41924014526598    1.75829586820009    1.21796745172519
N          -1.75829586317411    2.41924014257634   -1.21796745764979
C          -2.43358290213501   -0.62065746560648   -1.99518050684315
C           0.62065746123251   -2.43358291940280   -1.99518050116347
C           2.43358290701192    0.62065745872971   -1.99518049689713
C          -0.62065746794948    2.43358291344657    1.99518050628519
C          -2.43358290171393   -0.62065746101550    1.99518050785501
C           0.62065745877633   -2.43358290643056    1.99518049039897
C           2.43358290151268    0.62065745938670    1.99518051205622
C          -0.62065746613158    2.43358290469245   -1.99518049651451
O          -2.09416962012633   -0.53409637559046   -3.13865730033133
O           0.53409637733800   -2.09416964521022   -3.13865730478385
O           2.09416961893816    0.53409636274657   -3.13865729645545
O          -0.53409637170719    2.09416964139302    3.13865730595169
O          -2.09416962274791   -0.53409636054786    3.13865729942589
O           0.53409637212538   -2.09416961915947    3.13865729463761
O           2.09416962081918    0.53409637921834    3.13865730390362
O          -0.53409636912537    2.09416962600087   -3.13865729879503
C          -2.94946856890324    1.75074130924770   -1.65979483188437
C          -1.75074131146913   -2.94946856589507   -1.65979483261195
C           2.94946856291262   -1.75074131469824   -1.65979483338899
C           1.75074131013780    2.94946856434614    1.65979483246750
C          -2.94946856582322    1.75074130963720    1.65979483237146
C          -1.75074131532185   -2.94946856589618    1.65979483184731
C           2.94946856670674   -1.75074131367287    1.65979483166963
C           1.75074131272408    2.94946856620367   -1.65979483245471
H          -3.84477215965339    2.28216215112456   -1.31663265807249
H          -2.28216214876289   -3.84477216112679   -1.31663266676424
H           3.84477216365831   -2.28216214522062   -1.31663266972648
H           2.28216214989581    3.84477216204800    1.31663267167417
H          -3.84477216212318    2.28216214771007    1.31663266781139
H          -2.28216214484130   -3.84477216286765    1.31663265655449
H           3.84477216115691   -2.28216214981051    1.31663265928366
H           2.28216214679866    3.84477216270736   -1.31663266026406
H          -2.89457203789568    1.71815577094629   -2.75690347001715
H          -1.71815576396481   -2.89457202840627   -2.75690347094455
H           2.89457202899678   -1.71815575899591   -2.75690347228469
H           1.71815576303089    2.89457202594213    2.75690347055908
H          -2.89457203028325    1.71815576024695    2.75690347028146
H          -1.71815576644676   -2.89457204148398    2.75690346992672
H           2.89457203761072   -1.71815577004734    2.75690346987487
H           1.71815576558611    2.89457203932158   -2.75690347101902
H          -4.64257642639195    0.06912845790033   -0.00000000009168
H          -0.06912846270168   -4.64257642189394    0.00000000233016
H           4.64257642512184   -0.06912845978368   -0.00000000083956
H           0.06912845944307    4.64257642504857   -0.00000000209587
H          -4.04244893415890   -2.28409550096303   -0.00000000002320
H           2.28409550171092   -4.04244893270407    0.00000000224950
H           4.04244893561093    2.28409550080230   -0.00000000045088
H          -2.28409550179484    4.04244893054476   -0.00000000242569
HE         -0.00000000106771   -0.00000000046400    0.00000000037700
