    73
       -147.38062617
C          -3.18435451890552   -1.61359883852905   -0.00000022827710
C           1.61359883917060   -3.18435452094849   -0.00000022911632
C           3.18435451652049    1.61359883602974   -0.00000022787983
C          -1.61359884325258    3.18435451614451   -0.00000023309627
C          -3.56817209620052   -0.10853810244996   -0.00000023553755
C           0.10853810128954   -3.56817209479405   -0.00000022664654
C           3.56817208654147    0.10853810780294   -0.00000022093720
C          -0.10853810339789    3.56817209135527   -0.00000023154456
N          -2.98131905301346    0.38914616512495   -1.21207573452164
N          -0.38914616309589   -2.98131904920050   -1.21207573999027
N           2.98131905166879   -0.38914617301428   -1.21207573541035
N           0.38914622488773    2.98131922644671    1.21207531318944
N          -2.98131922436797    0.38914622649115    1.21207531142991
N          -0.38914623861580   -2.98131922399878    1.21207530772918
N           2.98131921420785   -0.38914622805632    1.21207531211250
N           0.38914616171614    2.98131904341336   -1.21207573404476
N          -2.43085805927530   -1.76946192847813   -1.21209356791121
N           1.76946191876877   -2.43085805776701   -1.21209356755412
N           2.43085805999660    1.76946193092879   -1.21209356695449
N          -1.76946206762764    2.43085818336244    1.21209314480712
N          -2.43085818750487   -1.76946205904013    1.21209314355351
N           1.76946206583458   -2.43085818585094    1.21209314333530
N           2.43085817692738    1.76946206471912    1.21209313943397
N          -1.76946192511023    2.43085805995564   -1.21209356691941
C          -2.40448873242894   -0.61324257350506   -1.97905874131160
C           0.61324257504462   -2.40448872895128   -1.97905874125025
C           2.40448872722859    0.61324256956511   -1.97905873930327
C          -0.61324243955957    2.40448818772367    1.97905810860509
C          -2.40448819226504   -0.61324243439569    1.97905810882385
C           0.61324243442483   -2.40448818870578    1.97905810722036
C           2.40448819143965    0.61324243786895    1.97905810925068
C          -0.61324256990664    2.40448873079104   -1.97905873878370
O          -2.07787751058400   -0.52994428236487   -3.13121424139097
O           0.52994428013798   -2.07787750374954   -3.13121423494811
O           2.07787750698918    0.52994428385759   -3.13121424400788
O          -0.52994434852328    2.07787776601937    3.13121413166408
O          -2.07787776675074   -0.52994434959800    3.13121412899101
O           0.52994434752058   -2.07787776924460    3.13121413714550
O           2.07787777500158    0.52994434882613    3.13121413443054
O          -0.52994428556581    2.07787750814004   -3.13121423770536
C          -2.95962319392859    1.75676652973372   -1.65218463278001
C          -1.75676653060004   -2.95962319356354   -1.65218463420302
C           2.95962318712406   -1.75676652966831   -1.65218464217374
C           1.75676663890637    2.95962335906639    1.65218416234749
C          -2.95962336656684    1.75676662347932    1.65218416868015
C          -1.75676663083117   -2.95962336897661    1.65218416592286
C           2.95962337085514   -1.75676662474099    1.65218416177971
C           1.75676651832642    2.95962319418015   -1.65218463918348
H          -3.85490462678718    2.28816675068762   -1.30926169051964
H          -2.28816675419724   -3.85490462121477   -1.30926169019219
H           3.85490462413459   -2.28816675295614   -1.30926168974847
H           2.28816684995862    3.85490479345987    1.30926125982293
H          -3.85490479688996    2.28816685412874    1.30926125824694
H          -2.28816685216994   -3.85490479410687    1.30926125961279
H           3.85490479114211   -2.28816685314807    1.30926126116849
H           2.28816675030914    3.85490462669890   -1.30926169220545
H          -2.90450411658274    1.72404662335456   -2.74928304433326
H          -1.72404662786677   -2.90450411648214   -2.74928304366830
H           2.90450411397611   -1.72404662510607   -2.74928303758573
H           1.72404671458953    2.90450427357238    2.74928258812668
H          -2.90450427343806    1.72404671672106    2.74928258328729
H          -1.72404671861611   -2.90450427151847    2.74928258390905
H           2.90450427081713   -1.72404671814977    2.74928258797149
H           1.72404662125471    2.90450411149085   -2.74928304017733
H          -4.66355823950821    0.06185134788764   -0.00000027908006
H          -0.06185135207964   -4.66355823640991   -0.00000027845760
H           4.66355823833328   -0.06185134905652   -0.00000028081031
H           0.06185134766570    4.66355823885373   -0.00000028027851
H          -4.06437134741447   -2.28774589676969   -0.00000028174510
H           2.28774589376271   -4.06437134425623   -0.00000027909707
H           4.06437134523925    2.28774589490082   -0.00000027903118
H          -2.28774589856880    4.06437134513656   -0.00000027874804
LI          0.00000012028561    0.00000002084771    0.00001585646336
