   73
 SCF done    -147.36554509      0.00000000
C         -3.198588428441   -1.630339198967    0.000000000000
C          1.630339198967   -3.198588428441    0.000000000000
C          3.198588428441    1.630339198967    0.000000000000
C         -1.630339198967    3.198588428441    0.000000000000
C         -3.588798236719   -0.100559950592    0.000000000000
C          0.100559950592   -3.588798236719    0.000000000000
C          3.588798236719    0.100559950592    0.000000000000
C         -0.100559950592    3.588798236719    0.000000000000
N         -3.030028511259    0.384739810966   -1.240509390502
N         -0.384739810966   -3.030028511259   -1.240509390502
N          3.030028511259   -0.384739810966   -1.240509390502
N          0.384739810966    3.030028511259    1.240509390502
N         -3.030028511259    0.384739810966    1.240509390502
N         -0.384739810966   -3.030028511259    1.240509390502
N          3.030028511259   -0.384739810966    1.240509390502
N          0.384739810966    3.030028511259   -1.240509390502
N         -2.475778783578   -1.788969121028   -1.240819390349
N          1.788969121028   -2.475778783578   -1.240819390349
N          2.475778783578    1.788969121028   -1.240819390349
N         -1.788969121028    2.475778783578    1.240819390349
N         -2.475778783578   -1.788969121028    1.240819390349
N          1.788969121028   -2.475778783578    1.240819390349
N          2.475778783578    1.788969121028    1.240819390349
N         -1.788969121028    2.475778783578   -1.240819390349
C         -2.481808780615   -0.632799689087   -2.022119006474
C          0.632799689087   -2.481808780615   -2.022119006474
C          2.481808780615    0.632799689087   -2.022119006474
C         -0.632799689087    2.481808780615    2.022119006474
C         -2.481808780615   -0.632799689087    2.022119006474
C          0.632799689087   -2.481808780615    2.022119006474
C          2.481808780615    0.632799689087    2.022119006474
C         -0.632799689087    2.481808780615   -2.022119006474
O         -2.118718959012   -0.539699734830   -3.170538442223
O          0.539699734830   -2.118718959012   -3.170538442223
O          2.118718959012    0.539699734830   -3.170538442223
O         -0.539699734830    2.118718959012    3.170538442223
O         -2.118718959012   -0.539699734830    3.170538442223
O          0.539699734830   -2.118718959012    3.170538442223
O          2.118718959012    0.539699734830    3.170538442223
O         -0.539699734830    2.118718959012   -3.170538442223
C         -2.975108538243    1.765859132382   -1.672269178366
C         -1.765859132382   -2.975108538243   -1.672269178366
C          2.975108538243   -1.765859132382   -1.672269178366
C          1.765859132382    2.975108538243    1.672269178366
C         -2.975108538243    1.765859132382    1.672269178366
C         -1.765859132382   -2.975108538243    1.672269178366
C          2.975108538243   -1.765859132382    1.672269178366
C          1.765859132382    2.975108538243   -1.672269178366
H         -3.866598100228    2.295168872317   -1.316549353141
H         -2.295168872317   -3.866598100228   -1.316549353141
H          3.866598100228   -2.295168872317   -1.316549353141
H          2.295168872317    3.866598100228    1.316549353141
H         -3.866598100228    2.295168872317    1.316549353141
H         -2.295168872317   -3.866598100228    1.316549353141
H          3.866598100228   -2.295168872317    1.316549353141
H          2.295168872317    3.866598100228   -1.316549353141
H         -2.958898546207    1.755439137502   -2.765508641225
H         -1.755439137502   -2.958898546207   -2.765508641225
H          2.958898546207   -1.755439137502   -2.765508641225
H          1.755439137502    2.958898546207    2.765508641225
H         -2.958898546207    1.755439137502    2.765508641225
H         -1.755439137502   -2.958898546207    2.765508641225
H          2.958898546207   -1.755439137502    2.765508641225
H          1.755439137502    2.958898546207   -2.765508641225
H         -4.678987701078    0.051369974760    0.000000000000
H         -0.051369974760   -4.678987701078    0.000000000000
H          4.678987701078   -0.051369974760    0.000000000000
H          0.051369974760    4.678987701078    0.000000000000
H         -4.083017993895   -2.285618877009    0.000000000000
H          2.285618877009   -4.083017993895    0.000000000000
H          4.083017993895    2.285618877009    0.000000000000
H         -2.285618877009    4.083017993895    0.000000000000
LI         0.000000000000    0.000000000000    0.000000000000
   73
 SCF done    -147.37763435      0.07345977
C         -3.189935465982   -1.621341127077    0.000000000424
C          1.621341127137   -3.189935465936    0.000000000188
C          3.189935465820    1.621341127266    0.000000001066
C         -1.621341127239    3.189935465866    0.000000000691
C         -3.576795809175   -0.104407232095    0.000000000471
C          0.104407232117   -3.576795809154    0.000000000154
C          3.576795809109    0.104407232151    0.000000001010
C         -0.104407232185    3.576795809123    0.000000000711
N         -3.007474169283    0.388942948067   -1.226756397387
N         -0.388942948351   -3.007474169644   -1.226756396714
N          3.007474168904   -0.388942948223   -1.226756398301
N          0.388942949400    3.007474170783    1.226756394493
N         -3.007474170185    0.388942948331    1.226756395449
N         -0.388942948285   -3.007474169922    1.226756396066
N          3.007474171087   -0.388942949386    1.226756393853
N          0.388942948358    3.007474169192   -1.226756397689
N         -2.453979767455   -1.781860827959   -1.226973986423
N          1.781860827965   -2.453979767723   -1.226973985867
N          2.453979767286    1.781860827092   -1.226973987471
N         -1.781860828690    2.453979768458    1.226973983706
N         -2.453979767983   -1.781860828953    1.226973984537
N          1.781860828458   -2.453979767917    1.226973985090
N          2.453979768775    1.781860828878    1.226973982954
N         -1.781860827468    2.453979767461   -1.226973986785
C         -2.441529111029   -0.622605408286   -1.997220902580
C          0.622605408395   -2.441529110234   -1.997220904721
C          2.441529112046    0.622605409143   -1.997220899105
C         -0.622605408233    2.441529107477    1.997220912626
C         -2.441529108872   -0.622605407472    1.997220909234
C          0.622605407905   -2.441529109549    1.997220907009
C          2.441529106716    0.622605407997    1.997220914901
C         -0.622605408866    2.441529111278   -1.997220901468
O         -2.118943146415   -0.539986995399   -3.150595625629
O          0.539986995458   -2.118943146849   -3.150595624295
O          2.118943145758    0.539986995127   -3.150595627793
O         -0.539986995763    2.118943148416    3.150595619388
O         -2.118943147703   -0.539986995779    3.150595621504
O          0.539986995621   -2.118943147278    3.150595622895
O          2.118943148863    0.539986995881    3.150595617974
O         -0.539986995258    2.118943146219   -3.150595626319
C         -2.973101170729    1.764717075087   -1.660582112158
C         -1.764717075074   -2.973101170518   -1.660582112273
C          2.973101170708   -1.764717074930   -1.660582112110
C          1.764717074445    2.973101170374    1.660582113190
C         -2.973101170425    1.764717074922    1.660582112993
C         -1.764717075077   -2.973101170289    1.660582112679
C          2.973101170248   -1.764717074751    1.660582112909
C          1.764717074970    2.973101170825   -1.660582111973
H         -3.867104014268    2.295441933054   -1.309534751141
H         -2.295441933071   -3.867104014310   -1.309534751119
H          3.867104014274   -2.295441933083   -1.309534751136
H          2.295441933155    3.867104014397    1.309534751028
H         -3.867104014344    2.295441933111    1.309534751063
H         -2.295441933105   -3.867104014349    1.309534751079
H          3.867104014402   -2.295441933112    1.309534751049
H          2.295441933049    3.867104014260   -1.309534751154
H         -2.935158435239    1.741824714979   -2.756535582449
H         -1.741824714986   -2.935158435252   -2.756535582429
H          2.935158435251   -1.741824714969   -2.756535582461
H          1.741824715017    2.935158435286    2.756535582248
H         -2.935158435278    1.741824714987    2.756535582284
H         -1.741824714978   -2.935158435280    2.756535582349
H          2.935158435271   -1.741824715027    2.756535582305
H          1.741824714987    2.935158435228   -2.756535582487
H         -4.672245691035    0.047974196688   -0.000000000015
H         -0.047974196690   -4.672245691041   -0.000000000005
H          4.672245691050   -0.047974196697   -0.000000000026
H          0.047974196698    4.672245691047   -0.000000000017
H         -4.078653815638   -2.279663055672   -0.000000000010
H          2.279663055669   -4.078653815640   -0.000000000005
H          4.078653815646    2.279663055664   -0.000000000030
H         -2.279663055663    4.078653815640   -0.000000000019
LI        -0.000000000000   -0.000000000000   -0.000000000002
   73
 SCF done    -147.38034703      0.02372696
C         -3.186169243231   -1.615122361628   -0.000000001353
C          1.615122361424   -3.186169243221   -0.000000000724
C          3.186169242487    1.615122361789    0.000000000122
C         -1.615122362010    3.186169242533   -0.000000000559
C         -3.570482242632   -0.108081011358   -0.000000001324
C          0.108081010840   -3.570482242653   -0.000000000969
C          3.570482242226    0.108081011011    0.000000000068
C         -0.108081011662    3.570482242223   -0.000000000449
N         -2.988758077290    0.389672549733   -1.215072656270
N         -0.389672548362   -2.988758077075   -1.215072656211
N          2.988758076928   -0.389672550186   -1.215072657465
N          0.389672552530    2.988758078849    1.215072654957
N         -2.988758079027    0.389672550785    1.215072655232
N         -0.389672549944   -2.988758079239    1.215072654986
N          2.988758079974   -0.389672551851    1.215072652370
N          0.389672552082    2.988758077860   -1.215072655691
N         -2.437200105132   -1.773522616482   -1.215186748230
N          1.773522616745   -2.437200105102   -1.215186748247
N          2.437200105425    1.773522614326   -1.215186749647
N         -1.773522615089    2.437200106722    1.215186747403
N         -2.437200106355   -1.773522617220    1.215186747373
N          1.773522618003   -2.437200106636    1.215186746726
N          2.437200107590    1.773522616670    1.215186744495
N         -1.773522614055    2.437200106015   -1.215186747974
C         -2.418062755782   -0.616690324679   -1.982958440159
C          0.616690324044   -2.418062757993   -1.982958439709
C          2.418062755941    0.616690326574   -1.982958433688
C         -0.616690326751    2.418062748442    1.982958433333
C         -2.418062748914   -0.616690323524    1.982958430389
C          0.616690322044   -2.418062747384    1.982958431829
C          2.418062747634    0.616690325056    1.982958442934
C         -0.616690328342    2.418062754862   -1.982958440088
O         -2.104637666394   -0.536589803586   -3.137760412005
O          0.536589804094   -2.104637669793   -3.137760415788
O          2.104637661572    0.536589801449   -3.137760410426
O         -0.536589805836    2.104637680368    3.137760432681
O         -2.104637676705   -0.536589805661    3.137760428522
O          0.536589805518   -2.104637673344    3.137760423932
O          2.104637685685    0.536589808000    3.137760430393
O         -0.536589802915    2.104637666482   -3.137760410354
C         -2.964520751503    1.759663365328   -1.651269243614
C         -1.759663366281   -2.964520750587   -1.651269243389
C          2.964520750326   -1.759663365774   -1.651269243064
C          1.759663365811    2.964520753903    1.651269240354
C         -2.964520754594    1.759663366679    1.651269240276
C         -1.759663367972   -2.964520753476    1.651269240425
C          2.964520753209   -1.759663366731    1.651269240534
C          1.759663364199    2.964520751289   -1.651269243253
H         -3.858804971561    2.290476968378   -1.303708596704
H         -2.290476968540   -3.858804971775   -1.303708597193
H          3.858804971918   -2.290476967906   -1.303708596903
H          2.290476970205    3.858804974989    1.303708597647
H         -3.858804974929    2.290476969875    1.303708597277
H         -2.290476969876   -3.858804974856    1.303708597369
H          3.858804974547   -2.290476970848    1.303708597598
H          2.290476968414    3.858804971330   -1.303708596505
H         -2.914439983918    1.729856865218   -2.748857321641
H         -1.729856864738   -2.914439984125   -2.748857321619
H          2.914439984039   -1.729856864717   -2.748857321855
H          1.729856865679    2.914439985092    2.748857318885
H         -2.914439985408    1.729856865033    2.748857319086
H         -1.729856865384   -2.914439984666    2.748857319294
H          2.914439984682   -1.729856865719    2.748857319066
H          1.729856864790    2.914439983975   -2.748857321899
H         -4.667426209792    0.054611530885   -0.000000002090
H         -0.054611530990   -4.667426209884   -0.000000001540
H          4.667426209713   -0.054611530889   -0.000000002007
H          0.054611530761    4.667426209626   -0.000000001359
H         -4.071207287788   -2.283276614301   -0.000000002016
H          2.283276614315   -4.071207287811   -0.000000001484
H          4.071207287572    2.283276614029   -0.000000002089
H         -2.283276614010    4.071207287496   -0.000000001449
LI         0.000000000746   -0.000000000193    0.000000003443
   73
 SCF done    -147.38058719      0.00947672
C         -3.183923000762   -1.613322170591   -0.000000000497
C          1.613322170346   -3.183923000680    0.000000000770
C          3.183923000396    1.613322170391    0.000000001294
C         -1.613322170169    3.183923000464   -0.000000000043
C         -3.567647113331   -0.108570516074   -0.000000000849
C          0.108570515613   -3.567647112559    0.000000001076
C          3.567647111696    0.108570515079    0.000000002339
C         -0.108570515892    3.567647112105   -0.000000000159
N         -2.981963030273    0.389474186026   -1.212376440515
N         -0.389474185102   -2.981963029919   -1.212376441491
N          2.981963030763   -0.389474185959   -1.212376440368
N          0.389474186260    2.981963030363    1.212376440440
N         -2.981963030853    0.389474185399    1.212376440383
N         -0.389474185189   -2.981963031860    1.212376439736
N          2.981963030302   -0.389474185591    1.212376438863
N          0.389474186673    2.981963030531   -1.212376439662
N         -2.431322598446   -1.770083064534   -1.212441764438
N          1.770083063822   -2.431322597404   -1.212441766511
N          2.431322598116    1.770083063524   -1.212441766762
N         -1.770083063390    2.431322598795    1.212441765696
N         -2.431322598943   -1.770083062834    1.212441765525
N          1.770083064201   -2.431322600074    1.212441764674
N          2.431322599311    1.770083063233    1.212441764031
N         -1.770083063822    2.431322599010   -1.212441764920
C         -2.409887682960   -0.614627486875   -1.980627045246
C          0.614627486423   -2.409887687332   -1.980627036552
C          2.409887683508    0.614627488504   -1.980627039090
C         -0.614627491967    2.409887687882    1.980627038236
C         -2.409887689105   -0.614627489339    1.980627036821
C          0.614627488052   -2.409887689023    1.980627044415
C          2.409887693274    0.614627492280    1.980627049631
C         -0.614627491417    2.409887684365   -1.980627045344
O         -2.092480555676   -0.533601317331   -3.135155502771
O          0.533601317390   -2.092480555245   -3.135155505353
O          2.092480545956    0.533601314635   -3.135155497215
O         -0.533601312815    2.092480543590    3.135155492182
O         -2.092480542253   -0.533601313733    3.135155489130
O          0.533601314694   -2.092480544123    3.135155489065
O          2.092480563488    0.533601318284    3.135155500337
O         -0.533601317562    2.092480558969   -3.135155502554
C         -2.960608878713    1.757350473453   -1.650876761198
C         -1.757350474620   -2.960608877837   -1.650876761372
C          2.960608876783   -1.757350474025   -1.650876761276
C          1.757350471535    2.960608876013    1.650876759701
C         -2.960608877794    1.757350471089    1.650876759180
C         -1.757350473401   -2.960608875898    1.650876759740
C          2.960608875413   -1.757350471820    1.650876760236
C          1.757350471170    2.960608878067   -1.650876761190
H         -3.855171074163    2.288306514320   -1.305364506292
H         -2.288306514177   -3.855171074037   -1.305364507147
H          3.855171073544   -2.288306513506   -1.305364506934
H          2.288306512395    3.855171072275    1.305364505580
H         -3.855171072213    2.288306513277    1.305364503695
H         -2.288306513346   -3.855171071949    1.305364504092
H          3.855171071424   -2.288306513822    1.305364505825
H          2.288306514570    3.855171073027   -1.305364506521
H         -2.907679007808    1.725908460976   -2.748454190857
H         -1.725908459534   -2.907679007452   -2.748454190932
H          2.907679006078   -1.725908460345   -2.748454190653
H          1.725908458981    2.907679005832    2.748454188851
H         -2.907679006723    1.725908459265    2.748454188654
H         -1.725908460519   -2.907679005690    2.748454188663
H          2.907679005687   -1.725908459127    2.748454188803
H          1.725908459893    2.907679006888   -2.748454190645
H         -4.663981326446    0.059395620807   -0.000000000195
H         -0.059395621478   -4.663981326788    0.000000000828
H          4.663981326379   -0.059395621298    0.000000000558
H          0.059395620766    4.663981326684    0.000000001349
H         -4.065917063786   -2.285801065300   -0.000000000238
H          2.285801065385   -4.065917064171    0.000000000737
H          4.065917063291    2.285801065093    0.000000000429
H         -2.285801065503    4.065917063438    0.000000001355
LI         0.000000006571    0.000000000211    0.000000052866
   73
 SCF done    -147.38061873      0.00364253
C         -3.183692908335   -1.613236334502   -0.000000003137
C          1.613236334187   -3.183692908450   -0.000000001288
C          3.183692907628    1.613236333956   -0.000000001169
C         -1.613236334178    3.183692908439   -0.000000003376
C         -3.567403869331   -0.108530858462   -0.000000003400
C          0.108530858130   -3.567403869439   -0.000000001092
C          3.567403868146    0.108530857385   -0.000000000556
C         -0.108530858424    3.567403868635   -0.000000003546
N         -2.980601099289    0.389280313669   -1.211977937457
N         -0.389280313790   -2.980601099296   -1.211977938334
N          2.980601099923   -0.389280313686   -1.211977937163
N          0.389280315255    2.980601100856    1.211977933295
N         -2.980601100573    0.389280315181    1.211977933627
N         -0.389280315665   -2.980601101971    1.211977933216
N          2.980601098322   -0.389280315846    1.211977932715
N          0.389280313705    2.980601098230   -1.211977936728
N         -2.430208056115   -1.769254481470   -1.212021103192
N          1.769254480069   -2.430208055033   -1.212021104576
N          2.430208056377    1.769254480345   -1.212021104597
N         -1.769254483649    2.430208057149    1.212021100091
N         -2.430208056539   -1.769254482725    1.212021100096
N          1.769254482814   -2.430208058322    1.212021100320
N          2.430208055500    1.769254481673    1.212021100129
N         -1.769254481352    2.430208056375   -1.212021103908
C         -2.407092321602   -0.613917812656   -1.980219545891
C          0.613917811283   -2.407092321036   -1.980219535242
C          2.407092321616    0.613917813761   -1.980219542798
C         -0.613917810074    2.407092300721    1.980219528917
C         -2.407092301435   -0.613917808447    1.980219528406
C          0.613917807991   -2.407092304466    1.980219535850
C          2.407092307269    0.613917811012    1.980219536851
C         -0.613917815807    2.407092322471   -1.980219547256
O         -2.084967520168   -0.531728859083   -3.133749066433
O          0.531728856195   -2.084967506684   -3.133749058567
O          2.084967509906    0.531728856549   -3.133749059238
O         -0.531728853773    2.084967504302    3.133749061331
O         -2.084967503323   -0.531728854973    3.133749061283
O          0.531728857523   -2.084967513433    3.133749067331
O          2.084967527263    0.531728859227    3.133749074030
O         -0.531728859017    2.084967522502   -3.133749066766
C         -2.959615796290    1.756761330073   -1.651620028531
C         -1.756761331147   -2.959615795312   -1.651620028587
C          2.959615794546   -1.756761330427   -1.651620028541
C          1.756761331014    2.959615798793    1.651620025248
C         -2.959615799947    1.756761330978    1.651620024476
C         -1.756761332769   -2.959615798837    1.651620025122
C          2.959615798114   -1.756761331843    1.651620025847
C          1.756761328428    2.959615795502   -1.651620028592
H         -3.854600576341    2.287968377089   -1.307599486535
H         -2.287968377112   -3.854600576101   -1.307599487298
H          3.854600574845   -2.287968377421   -1.307599487341
H          2.287968378256    3.854600579172    1.307599485541
H         -3.854600579372    2.287968378849    1.307599483116
H         -2.287968380201   -3.854600578575    1.307599484094
H          3.854600578772   -2.287968379430    1.307599486591
H          2.287968377002    3.854600574887   -1.307599487112
H         -2.905733670605    1.724762896326   -2.748952718050
H         -1.724762895359   -2.905733668653   -2.748952718044
H          2.905733666932   -1.724762895731   -2.748952718027
H          1.724762896157    2.905733671264    2.748952715292
H         -2.905733672592    1.724762897528    2.748952714520
H         -1.724762898475   -2.905733671778    2.748952714788
H          2.905733670750   -1.724762896571    2.748952715515
H          1.724762895331    2.905733668763   -2.748952718131
H         -4.663125047072    0.061481586338   -0.000000003261
H         -0.061481586422   -4.663125047840   -0.000000003012
H          4.663125046529   -0.061481586515   -0.000000001769
H          0.061481586129    4.663125047056   -0.000000003510
H         -4.064187451873   -2.287202541553   -0.000000003353
H          2.287202541169   -4.064187452480   -0.000000003307
H          4.064187450984    2.287202540439   -0.000000002002
H         -2.287202541099    4.064187451983   -0.000000003337
LI         0.000000015054    0.000000001569    0.000000136410
   73
 SCF done    -147.38062386      0.00106142
C         -3.183976733725   -1.613426531091   -0.000000011544
C          1.613426530897   -3.183976733671   -0.000000010313
C          3.183976732220    1.613426529833   -0.000000010741
C         -1.613426531052    3.183976733570   -0.000000012704
C         -3.567746774359   -0.108501570469   -0.000000012881
C          0.108501569792   -3.567746774759   -0.000000010049
C          3.567746772607    0.108501569367   -0.000000008575
C         -0.108501569992    3.567746773658   -0.000000012630
N         -2.980771844564    0.389200296984   -1.212007090155
N         -0.389200297700   -2.980771845921   -1.212007090605
N          2.980771845957   -0.389200298522   -1.212007088692
N          0.389200304295    2.980771863063    1.212007071553
N         -2.980771862464    0.389200304185    1.212007070724
N         -0.389200305560   -2.980771863455    1.212007071095
N          2.980771857935   -0.389200304420    1.212007071111
N          0.389200297416    2.980771842472   -1.212007089046
N         -2.430382793884   -1.769260845639   -1.212039438755
N          1.769260844473   -2.430382793294   -1.212039439652
N          2.430382793987    1.769260845218   -1.212039440734
N         -1.769260861547    2.430382806953    1.212039421457
N         -2.430382806270   -1.769260859150    1.212039421868
N          1.769260859527   -2.430382807897    1.212039422742
N          2.430382804008    1.769260858287    1.212039421039
N         -1.769260845367    2.430382793558   -1.212039440686
C         -2.405889929271   -0.613608340644   -1.979858870716
C          0.613608338748   -2.405889926279   -1.979858863401
C          2.405889929802    0.613608340749   -1.979858870020
C         -0.613608328791    2.405889873863    1.979858823773
C         -2.405889874282   -0.613608326853    1.979858823513
C          0.613608326389   -2.405889877332    1.979858828029
C          2.405889878699    0.613608329238    1.979858828164
C         -0.613608342598    2.405889929714   -1.979858871690
O         -2.081294410891   -0.530806903150   -3.132694654326
O          0.530806899616   -2.081294392771   -3.132694643405
O          2.081294403927    0.530806902831   -3.132694651822
O         -0.530806908402    2.081294433261    3.132694664681
O         -2.081294431619   -0.530806909559    3.132694664350
O          0.530806911858   -2.081294443486    3.132694671076
O          2.081294452025    0.530806911706    3.132694672782
O         -0.530806903651    2.081294412602   -3.132694656055
C         -2.959562575786    1.756729145240   -1.652026197464
C         -1.756729146649   -2.959562574262   -1.652026197681
C          2.959562573373   -1.756729146041   -1.652026198269
C          1.756729154651    2.959562590075    1.652026176127
C         -2.959562592315    1.756729153839    1.652026175891
C         -1.756729156054   -2.959562591097    1.652026176221
C          2.959562590032   -1.756729154141    1.652026176574
C          1.756729143486    2.959562575106   -1.652026198060
H         -3.854777924260    2.288078425648   -1.308737210172
H         -2.288078425837   -3.854777923648   -1.308737210872
H          3.854777921875   -2.288078426243   -1.308737210747
H          2.288078434389    3.854777939299    1.308737199309
H         -3.854777939833    2.288078434709    1.308737197382
H         -2.288078436694   -3.854777939420    1.308737198839
H          3.854777939681   -2.288078435858    1.308737200817
H          2.288078425219    3.854777922763   -1.308737210598
H         -2.905103627496    1.724392699777   -2.749217387743
H         -1.724392699757   -2.905103625211   -2.749217387947
H          2.905103623697   -1.724392699757   -2.749217387535
H          1.724392701015    2.905103630209    2.749217367194
H         -2.905103631747    1.724392702980    2.749217366285
H         -1.724392703162   -2.905103630785    2.749217366662
H          2.905103628868   -1.724392701593    2.749217367428
H          1.724392699057    2.905103625389   -2.749217387447
H         -4.663209229587    0.061949507808   -0.000000015894
H         -0.061949508100   -4.663209230671   -0.000000015502
H          4.663209228430   -0.061949508430   -0.000000015150
H          0.061949507634    4.663209229076   -0.000000017193
H         -4.064039747078   -2.287650697626   -0.000000016581
H          2.287650697443   -4.064039747840   -0.000000016024
H          4.064039746065    2.287650696987   -0.000000014664
H         -2.287650697501    4.064039747276   -0.000000016827
LI         0.000000028756    0.000000003694    0.000000684880
   73
 SCF done    -147.38062563      0.00060239
C         -3.184239261872   -1.613561319660   -0.000000048487
C          1.613561318835   -3.184239263990   -0.000000045529
C          3.184239258675    1.613561316626   -0.000000044323
C         -1.613561321072    3.184239261978   -0.000000046087
C         -3.568046882794   -0.108512490636   -0.000000047925
C          0.108512490160   -3.568046885966   -0.000000043176
C          3.568046881554    0.108512491829   -0.000000045704
C         -0.108512491450    3.568046884595   -0.000000047224
N         -2.981105243822    0.389160574352   -1.212050341109
N         -0.389160576769   -2.981105244643   -1.212050344063
N          2.981105242376   -0.389160579888   -1.212050344027
N          0.389160585316    2.981105290503    1.212050257734
N         -2.981105290365    0.389160587224    1.212050256700
N         -0.389160588735   -2.981105288429    1.212050258233
N          2.981105284693   -0.389160588889    1.212050256401
N          0.389160576101    2.981105239186   -1.212050341032
N         -2.430678626690   -1.769379067203   -1.212074237902
N          1.769379068433   -2.430678626039   -1.212074235882
N          2.430678627599    1.769379073314   -1.212074234572
N         -1.769379101522    2.430678663578    1.212074152762
N         -2.430678665113   -1.769379102190    1.212074150961
N          1.769379100024   -2.430678664697    1.212074154342
N          2.430678659109    1.769379099054    1.212074153432
N         -1.769379069550    2.430678627578   -1.212074236121
C         -2.405006290326   -0.613378600913   -1.979406645299
C          0.613378600392   -2.405006286690   -1.979406643162
C          2.405006289036    0.613378602434   -1.979406645160
C         -0.613378580226    2.405006193126    1.979406517436
C         -2.405006193128   -0.613378578407    1.979406517703
C          0.613378577209   -2.405006195633    1.979406518535
C          2.405006196483    0.613378577763    1.979406519432
C         -0.613378603388    2.405006289904   -1.979406645248
O         -2.078993901129   -0.530227266511   -3.131776034690
O          0.530227261740   -2.078993885489   -3.131776027254
O          2.078993897391    0.530227263954   -3.131776037216
O         -0.530227281795    2.078993964284    3.131775996850
O         -2.078993962900   -0.530227280635    3.131775998715
O          0.530227282547   -2.078993972362    3.131776001266
O          2.078993977125    0.530227284573    3.131776002292
O         -0.530227265475    2.078993901049   -3.131776037884
C         -2.959605957544    1.756755183971   -1.652187216054
C         -1.756755185176   -2.959605955960   -1.652187213648
C          2.959605955252   -1.756755186771   -1.652187213904
C          1.756755202466    2.959605986212    1.652187117198
C         -2.959605990920    1.756755206044    1.652187116923
C         -1.756755203293   -2.959605990566    1.652187117263
C          2.959605985300   -1.756755201357    1.652187117319
C          1.756755183058    2.959605957245   -1.652187216115
H         -3.854904049613    2.288159811032   -1.309232070967
H         -2.288159812717   -3.854904049635   -1.309232071864
H          3.854904046699   -2.288159812644   -1.309232072661
H          2.288159831201    3.854904082962    1.309231985993
H         -3.854904082729    2.288159829746    1.309231985563
H         -2.288159833183   -3.854904080587    1.309231986607
H          3.854904082307   -2.288159830929    1.309231987133
H          2.288159809848    3.854904047003   -1.309232072170
H         -2.904695617904    1.724155784835   -2.749303766300
H         -1.724155786028   -2.904695615431   -2.749303767185
H          2.904695613451   -1.724155784475   -2.749303766259
H          1.724155795769    2.904695636144    2.749303668884
H         -2.904695637991    1.724155796651    2.749303667722
H         -1.724155797895   -2.904695636285    2.749303668572
H          2.904695634999   -1.724155796340    2.749303669874
H          1.724155783283    2.904695614951   -2.749303765553
H         -4.663420193331    0.061965824737   -0.000000056432
H         -0.061965824913   -4.663420192902   -0.000000055622
H          4.663420190915   -0.061965825513   -0.000000055443
H          0.061965823859    4.663420191379   -0.000000057589
H         -4.064208763847   -2.287771471130   -0.000000056595
H          2.287771469785   -4.064208764133   -0.000000055986
H          4.064208763493    2.287771470759   -0.000000055921
H         -2.287771470997    4.064208763965   -0.000000057511
LI         0.000000059720    0.000000008983    0.000003261013
   73
 SCF done    -147.38062617      0.00044995
C         -3.184352954341   -1.613598045722   -0.000000228277
C          1.613598046363   -3.184352956384   -0.000000229116
C          3.184352951956    1.613598043222   -0.000000227880
C         -1.613598050445    3.184352951580   -0.000000233096
C         -3.568170343055   -0.108538049122   -0.000000235537
C          0.108538047962   -3.568170341649   -0.000000226646
C          3.568170333396    0.108538054475   -0.000000220937
C         -0.108538050070    3.568170338210   -0.000000231544
N         -2.981317588206    0.389145973926   -1.212075138994
N         -0.389145971897   -2.981317584393   -1.212075144463
N          2.981317586861   -0.389145981816   -1.212075139883
N          0.389146033689    2.981317761639    1.212074717662
N         -2.981317759560    0.389146035292    1.212074715902
N         -0.389146047417   -2.981317759191    1.212074712202
N          2.981317749400   -0.389146036858    1.212074716585
N          0.389145970517    2.981317578606   -1.212075138517
N         -2.430856864925   -1.769461059091   -1.212092972375
N          1.769461049381   -2.430856863417   -1.212092972018
N          2.430856865646    1.769461061541   -1.212092971418
N         -1.769461198240    2.430856989012    1.212092549271
N         -2.430856993154   -1.769461189653    1.212092548017
N          1.769461196447   -2.430856991500    1.212092547799
N          2.430856982577    1.769461195332    1.212092543898
N         -1.769461055723    2.430856865605   -1.212092971383
C         -2.404487551035   -0.613242272201   -1.979057768943
C          0.613242273741   -2.404487547557   -1.979057768882
C          2.404487545834    0.613242268261   -1.979057766935
C         -0.613242138256    2.404487006329    1.979057136237
C         -2.404487010871   -0.613242133092    1.979057136456
C          0.613242133121   -2.404487007312    1.979057134852
C          2.404487010045    0.613242136565    1.979057136883
C         -0.613242268603    2.404487549397   -1.979057766415
O         -2.077876489663   -0.529944021988   -3.131212702935
O          0.529944019761   -2.077876482829   -3.131212696493
O          2.077876486068    0.529944023481   -3.131212705552
O         -0.529944088146    2.077876745098    3.131212593209
O         -2.077876745830   -0.529944089221    3.131212590535
O          0.529944087144   -2.077876748324    3.131212598690
O          2.077876754080    0.529944088449    3.131212595975
O         -0.529944025189    2.077876487219   -3.131212699250
C         -2.959621739781    1.756765666584   -1.652183821014
C         -1.756765667450   -2.959621739416   -1.652183822437
C          2.959621732976   -1.756765666518   -1.652183830408
C          1.756765775756    2.959621904918    1.652183350582
C         -2.959621912419    1.756765760329    1.652183356915
C         -1.756765767681   -2.959621914829    1.652183354157
C          2.959621916707   -1.756765761591    1.652183350014
C          1.756765655177    2.959621740032   -1.652183827418
H         -3.854902732762    2.288165626446   -1.309261047242
H         -2.288165629955   -3.854902727189   -1.309261046914
H          3.854902730109   -2.288165628714   -1.309261046471
H          2.288165725716    3.854902899434    1.309260616545
H         -3.854902902864    2.288165729887    1.309260614969
H         -2.288165727928   -3.854902900081    1.309260616335
H          3.854902897117   -2.288165728906    1.309260617891
H          2.288165626067    3.854902732673   -1.309261048928
H         -2.904502689516    1.724045776281   -2.749281693531
H         -1.724045780793   -2.904502689416   -2.749281692867
H          2.904502686910   -1.724045778032   -2.749281686784
H          1.724045867516    2.904502846506    2.749281237325
H         -2.904502846372    1.724045869647    2.749281232486
H         -1.724045871542   -2.904502844452    2.749281233107
H          2.904502843751   -1.724045871076    2.749281237170
H          1.724045774181    2.904502684424   -2.749281689376
H         -4.663555948168    0.061851317498   -0.000000279080
H         -0.061851321690   -4.663555945070   -0.000000278457
H          4.663555946993   -0.061851318667   -0.000000280810
H          0.061851317276    4.663555947514   -0.000000280278
H         -4.064369350472   -2.287744772734   -0.000000281745
H          2.287744769727   -4.064369347314   -0.000000279097
H          4.064369348297    2.287744770865   -0.000000279031
H         -2.287744774533    4.064369348194   -0.000000278748
LI         0.000000120286    0.000000020848    0.000015856456
