    73
       -150.96654977
C          -3.17983335665211   -1.61317576128188   -0.00000000346900
C           1.61317678963083   -3.17983214299489    0.00000000181986
C           3.17982934901120    1.61317724518732   -0.00000000332830
C          -1.61317928176402    3.17983628267217   -0.00000000406048
C          -3.56399898456191   -0.10673394472594    0.00000000731422
C           0.10673510612795   -3.56399620031053    0.00000000946263
C           3.56399478799100    0.10673585975621    0.00000000746136
C          -0.10673703991856    3.56399989715815    0.00000000897079
N          -2.98804823747265    0.38444817860265   -1.22321106902754
N          -0.38444635122636   -2.98804502429384   -1.22321095363570
N           2.98804448462414   -0.38444579125873   -1.22321130320885
N           0.38444340521701    2.98805034898641    1.22321326433818
N          -2.98804825247989    0.38444817287459    1.22321107715693
N          -0.38444635650206   -2.98804503745415    1.22321095243271
N           2.98804449262624   -0.38444580086239    1.22321130599340
N           0.38444340944930    2.98805033753045   -1.22321325645756
N          -2.43901694561214   -1.76855620712279   -1.22322401496857
N           1.76855770934432   -2.43901655925316   -1.22322466170084
N           2.43901326006825    1.76855766633604   -1.22322464506236
N          -1.76856065285775    2.43902234646936    1.22322691902094
N          -2.43901694212282   -1.76855622085113    1.22322404213107
N           1.76855770193002   -2.43901656972391    1.22322468457529
N           2.43901325461799    1.76855765984971    1.22322467497713
N          -1.76856065029388    2.43902235134749   -1.22322689047469
C          -2.47356863281753   -0.63085545356769   -2.00594356542447
C           0.63085635112764   -2.47356504615698   -2.00594378366192
C           2.47356471049032    0.63085633173654   -2.00594468929639
C          -0.63086084082491    2.47357786611467    2.00595048877305
C          -2.47356864497725   -0.63085544198566    2.00594358935041
C           0.63085637221185   -2.47356505479634    2.00594380605853
C           2.47356472681495    0.63085634828515    2.00594470468003
C          -0.63086083448281    2.47357784436647   -2.00595048001394
O          -2.15353809614155   -0.54924162175062   -3.15498987350017
O           0.54924311430221   -2.15353636233758   -3.15499050303112
O           2.15353563019033    0.54924298351528   -3.15499131546487
O          -0.54924745157058    2.15354780419919    3.15499692952868
O          -2.15353809410553   -0.54924161673929    3.15498988245598
O           0.54924310038782   -2.15353638133064    3.15499052285170
O           2.15353565603600    0.54924296490513    3.15499134088289
O          -0.54924745651797    2.15354780020653   -3.15499692924770
C          -2.95701542315634    1.75522359769698   -1.66084515940917
C          -1.75522138837390   -2.95701199033849   -1.66084422307222
C           2.95701304650224   -1.75522118558018   -1.66084461421945
C           1.75521950081826    2.95701396171427    1.66084519203983
C          -2.95701541893210    1.75522360901956    1.66084516690476
C          -1.75522139169567   -2.95701198296147    1.66084422757091
C           2.95701305390920   -1.75522117836381    1.66084462231445
C           1.75521949895008    2.95701396411059   -1.66084518101257
H          -3.85332395029703    2.28722735910418   -1.32080253628639
H          -2.28722609204053   -3.85331965030675   -1.32080217203648
H           3.85332091267487   -2.28722490739259   -1.32080230921868
H           2.28722531357977    3.85332094204218    1.32080219355657
H          -3.85332394968599    2.28722735903836    1.32080253863329
H          -2.28722609709169   -3.85331964940192    1.32080218310350
H           3.85332091111273   -2.28722491455632    1.32080231715793
H           2.28722531269158    3.85332094850464   -1.32080219273065
H          -2.90067296024316    1.72177775777558   -2.75771757420220
H          -1.72177621493232   -2.90066921618664   -2.75771630648844
H           2.90067059316548   -1.72177622043669   -2.75771652635735
H           1.72177523658142    2.90067142002890    2.75771746506687
H          -2.90067296773499    1.72177775472784    2.75771758515362
H          -1.72177620201734   -2.90066921891363    2.75771631562572
H           2.90067060158270   -1.72177621817679    2.75771653391133
H           1.72177524009508    2.90067140434162   -2.75771745274768
H          -4.65869757076905    0.06117208562460   -0.00000000432135
H          -0.06117128869761   -4.65869430469308   -0.00000000501535
H           4.65869297319049   -0.06117008510470    0.00000000034731
H           0.06117050526619    4.65869829361179   -0.00000000295702
H          -4.06044103345571   -2.28480673418376    0.00000000774587
H           2.28480605381440   -4.06044066756602    0.00000000274654
H           4.06043762289886    2.28480749604073    0.00000001992835
H          -2.28480919324908    4.06044511560224    0.00000000498441
XE          0.00010445624209   -0.00012899612262   -0.00000039191762
