    73
       -151.70767352
C          -3.17020577278577   -1.60954212440512    0.00000000072548
C           1.60954212444051   -3.17020577403764   -0.00000000019749
C           3.17020577129705    1.60954212494003   -0.00000000039401
C          -1.60954212621209    3.17020577402533    0.00000000030896
C          -3.55375072092373   -0.10529520209207    0.00000000007125
C           0.10529520186605   -3.55375072224731    0.00000000022646
C           3.55375071909938    0.10529520244960    0.00000000011339
C          -0.10529520353446    3.55375072177267    0.00000000014661
N          -2.97318713526206    0.38477283330529   -1.21964601607010
N          -0.38477283402373   -2.97318713689680   -1.21964601476200
N           2.97318713185461   -0.38477283352129   -1.21964601409901
N           0.38477283191668    2.97318713590604    1.21964601467954
N          -2.97318713409977    0.38477283398635    1.21964601461678
N          -0.38477283399804   -2.97318713484542    1.21964601481164
N           2.97318713381168   -0.38477283308157    1.21964601582847
N           0.38477283239567    2.97318713446152   -1.21964601489790
N          -2.42593032758587   -1.76178851878714   -1.21969241005123
N           1.76178851899648   -2.42593033081047   -1.21969241081926
N           2.42593032772851    1.76178851964130   -1.21969241119081
N          -1.76178852125953    2.42593033068814    1.21969241070908
N          -2.42593032890750   -1.76178851887817    1.21969241114956
N           1.76178851811000   -2.42593032819847    1.21969240937805
N           2.42593032670313    1.76178851933526    1.21969240960057
N          -1.76178852042130    2.42593032857817   -1.21969240978954
C          -2.44427516984835   -0.62340283258067   -1.99754256010080
C           0.62340283087890   -2.44427516562159   -1.99754256062471
C           2.44427516666644    0.62340283257891   -1.99754256125025
C          -0.62340283314506    2.44427516648667    1.99754256099023
C          -2.44427516829360   -0.62340283169755    1.99754256120638
C           0.62340283077525   -2.44427516391953    1.99754255880465
C           2.44427516695596    0.62340283289120    1.99754256109879
C          -0.62340283267532    2.44427516547567   -1.99754255854784
O          -2.10756194177695   -0.53753841728858   -3.14180466773841
O           0.53753841239387   -2.10756193168269   -3.14180466517391
O           2.10756193916534    0.53753841536223   -3.14180466832423
O          -0.53753841522769    2.10756193393848    3.14180466590420
O          -2.10756194028767   -0.53753841445821    3.14180466769527
O           0.53753841324240   -2.10756192877473    3.14180466361797
O           2.10756193866054    0.53753841774451    3.14180466791365
O          -0.53753841540915    2.10756193150796   -3.14180466387550
C          -2.95179172432405    1.75211472555390   -1.66018744467400
C          -1.75211472618148   -2.95179172373301   -1.66018744415983
C           2.95179172221930   -1.75211472548432   -1.66018744466412
C           1.75211472382730    2.95179172348589    1.66018744497014
C          -2.95179172462244    1.75211472630943    1.66018744408331
C          -1.75211472618571   -2.95179172336664    1.66018744425790
C           2.95179172253107   -1.75211472527671    1.66018744400997
C           1.75211472460539    2.95179172387493   -1.66018744394677
H          -3.84760392213931    2.28377920456570   -1.31858298872591
H          -2.28377920658740   -3.84760392062779   -1.31858298812772
H           3.84760392069599   -2.28377920387505   -1.31858298894502
H           2.28377920390165    3.84760392121447    1.31858299021522
H          -3.84760392281136    2.28377920434037    1.31858298716615
H          -2.28377920573595   -3.84760392060419    1.31858298710340
H           3.84760392010576   -2.28377920463434    1.31858298706611
H           2.28377920344680    3.84760392145416   -1.31858298625006
H          -2.89585405253409    1.71890634020145   -2.75719171978261
H          -1.71890634063177   -2.89585405215027   -2.75719171905213
H           2.89585405110389   -1.71890633900002   -2.75719171931428
H           1.71890633774031    2.89585405047310    2.75719171963319
H          -2.89585405471693    1.71890634063862    2.75719171908694
H          -1.71890634098014   -2.89585405370044    2.75719171942411
H           2.89585405203691   -1.71890634091411    2.75719171913966
H           1.71890633980693    2.89585405501873   -2.75719171919381
H          -4.64793396228074    0.06650433685259    0.00000000026683
H          -0.06650433708829   -4.64793396374968    0.00000000060529
H           4.64793396083595   -0.06650433670865   -0.00000000044362
H           0.06650433577587    4.64793396316625   -0.00000000031467
H          -4.04855488397714   -2.28427083462416    0.00000000002784
H           2.28427083468243   -4.04855488523056    0.00000000022276
H           4.04855488307132    2.28427083504042   -0.00000000018627
H          -2.28427083603676    4.04855488575487   -0.00000000018030
AR          0.00000006916590   -0.00000001551529   -0.00000000100770
