73
/Users/alanarnold/Documents/Firefly projects/Q4/Cl-@Q4_opt_DFT-D4_def2TZVP_C4h_1.out	Energy:   -2866.7492951
C         -3.19102       -1.62752        0.00000
C          1.62752       -3.19102        0.00000
C          3.19102        1.62752        0.00000
C         -1.62752        3.19102        0.00000
C         -3.57971       -0.09904        0.00000
C          0.09904       -3.57971        0.00000
C          3.57971        0.09904        0.00000
C         -0.09904        3.57971        0.00000
N         -3.04461        0.38216       -1.24990
N         -0.38216       -3.04461       -1.24990
N          3.04461       -0.38216       -1.24990
N          0.38216        3.04461        1.24990
N         -3.04461        0.38216        1.24990
N         -0.38216       -3.04461        1.24990
N          3.04461       -0.38216        1.24990
N          0.38216        3.04461       -1.24990
N         -2.49173       -1.79464       -1.25072
N          1.79464       -2.49173       -1.25072
N          2.49173        1.79464       -1.25072
N         -1.79464        2.49173        1.25072
N         -2.49173       -1.79464        1.25072
N          1.79464       -2.49173        1.25072
N          2.49173        1.79464        1.25072
N         -1.79464        2.49173       -1.25072
C         -2.47383       -0.63109       -2.01804
C          0.63109       -2.47383       -2.01804
C          2.47383        0.63109       -2.01804
C         -0.63109        2.47383        2.01804
C         -2.47383       -0.63109        2.01804
C          0.63109       -2.47383        2.01804
C          2.47383        0.63109        2.01804
C         -0.63109        2.47383       -2.01804
O         -2.13356       -0.54399       -3.17664
O          0.54399       -2.13356       -3.17664
O          2.13356        0.54399       -3.17664
O         -0.54399        2.13356        3.17664
O         -2.13356       -0.54399        3.17664
O          0.54399       -2.13356        3.17664
O          2.13356        0.54399        3.17664
O         -0.54399        2.13356       -3.17664
C         -2.96915        1.76224       -1.67079
C         -1.76224       -2.96915       -1.67079
C          2.96915       -1.76224       -1.67079
C          1.76224        2.96915        1.67079
C         -2.96915        1.76224        1.67079
C         -1.76224       -2.96915        1.67079
C          2.96915       -1.76224        1.67079
C          1.76224        2.96915       -1.67079
H         -3.86371        2.29259       -1.31628
H         -2.29259       -3.86371       -1.31628
H          3.86371       -2.29259       -1.31628
H          2.29259        3.86371        1.31628
H         -3.86371        2.29259        1.31628
H         -2.29259       -3.86371        1.31628
H          3.86371       -2.29259        1.31628
H          2.29259        3.86371       -1.31628
H         -2.94965        1.74969       -2.76446
H         -1.74969       -2.94965       -2.76446
H          2.94965       -1.74969       -2.76446
H          1.74969        2.94965        2.76446
H         -2.94965        1.74969        2.76446
H         -1.74969       -2.94965        2.76446
H          2.94965       -1.74969        2.76446
H          1.74969        2.94965       -2.76446
H         -4.67394        0.04821        0.00000
H         -0.04821       -4.67394        0.00000
H          4.67394       -0.04821        0.00000
H          0.04821        4.67394        0.00000
H         -4.08202       -2.27924        0.00000
H          2.27924       -4.08202        0.00000
H          4.08202        2.27924        0.00000
H         -2.27924        4.08202        0.00000
Cl         0.00000        0.00000        0.00000
