    73
       -152.52220417
C          -3.16572760578864   -1.60786900156131   -0.00000000029313
C           1.60786900239653   -3.16572760725733    0.00000000023050
C           3.16572760598526    1.60786900168244    0.00000000043273
C          -1.60786900235121    3.16572760719676    0.00000000053097
C          -3.54906658555428   -0.10463814474646    0.00000000005968
C           0.10463814522088   -3.54906658633510    0.00000000042336
C           3.54906658564971    0.10463814483404    0.00000000012328
C          -0.10463814512768    3.54906658607058    0.00000000023440
N          -2.96631390144428    0.38490040669598   -1.21804857506730
N          -0.38490040662905   -2.96631389961678   -1.21804857407647
N           2.96631390254697   -0.38490040697280   -1.21804857738651
N           0.38490040665069    2.96631389967263    1.21804857446570
N          -2.96631390122116    0.38490040695512    1.21804857648507
N          -0.38490040580863   -2.96631390396927    1.21804857729996
N           2.96631390006056   -0.38490040679238    1.21804857417383
N           0.38490040557045    2.96631390318794   -1.21804857665858
N          -2.41973634781701   -1.75855476135331   -1.21806781130477
N           1.75855476164467   -2.41973634677026   -1.21806780972061
N           2.41973634354320    1.75855475990202   -1.21806780793467
N          -1.75855476205748    2.41973634774574    1.21806781091211
N          -2.41973634274976   -1.75855475964072    1.21806780796111
N           1.75855476135199   -2.41973634716410    1.21806780950683
N           2.41973634768311    1.75855476120981    1.21806781147623
N          -1.75855476139263    2.41973634627885   -1.21806780825226
C          -2.43407978147386   -0.62078826468611   -1.99522100166947
C           0.62078826483217   -2.43407977885774   -1.99522099942684
C           2.43407977910788    0.62078826422671   -1.99522099937382
C          -0.62078826423004    2.43407977720741    1.99522099961490
C          -2.43407978001057   -0.62078826418300    1.99522099887744
C           0.62078826550079   -2.43407978082868    1.99522099984452
C           2.43407978240746    0.62078826484901    1.99522100093891
C          -0.62078826601010    2.43407978254375   -1.99522100037604
O          -2.09452901557825   -0.53419337786583   -3.13864877507052
O           0.53419337855505   -2.09452900987703   -3.13864877189087
O           2.09452900894122    0.53419338268378   -3.13864877259316
O          -0.53419337684618    2.09452900552675    3.13864877135895
O          -2.09452901201026   -0.53419338218901    3.13864877295655
O           0.53419338195935   -2.09452901043572    3.13864877280014
O           2.09452901801271    0.53419337826458    3.13864877519556
O          -0.53419338430505    2.09452901560534   -3.13864877422860
C          -2.94961168868781    1.75082674255589   -1.65979576964916
C          -1.75082674235701   -2.94961168866794   -1.65979576938879
C           2.94961169007480   -1.75082674344634   -1.65979576882103
C           1.75082674263149    2.94961168867452    1.65979576935619
C          -2.94961168980457    1.75082674326784    1.65979576942488
C          -1.75082674211678   -2.94961168843684    1.65979576954269
C           2.94961168854046   -1.75082674235579    1.65979576999086
C           1.75082674177776    2.94961168834573   -1.65979576958498
H          -3.84496808515313    2.28226304926159   -1.31679008291055
H          -2.28226304822259   -3.84496808473885   -1.31679008004762
H           3.84496808507456   -2.28226304948303   -1.31679007690026
H           2.28226304833201    3.84496808456440    1.31679007932597
H          -3.84496808517515    2.28226304898142    1.31679007820087
H          -2.28226304988766   -3.84496808346145    1.31679008062404
H           3.84496808498107   -2.28226304885477    1.31679008332521
H           2.28226304951508    3.84496808371779   -1.31679008157336
H          -2.89458247822449    1.71816013503529   -2.75689609780324
H          -1.71816013490725   -2.89458248247072   -2.75689609784729
H           2.89458248546351   -1.71816013970896   -2.75689609756982
H           1.71816013573891    2.89458248294376    2.75689609789072
H          -2.89458248478812    1.71816013776355    2.75689609808909
H          -1.71816013678875   -2.89458247975181    2.75689609803166
H           2.89458247817211   -1.71816013355243    2.75689609810588
H           1.71816013589190    2.89458247899159   -2.75689609798352
H          -4.64298985634808    0.06894613267392    0.00000000058548
H          -0.06894613267942   -4.64298985706043   -0.00000000068341
H           4.64298985640269   -0.06894613276394   -0.00000000090297
H           0.06894613274957    4.64298985684123    0.00000000089582
H          -4.04294124386425   -2.28410653035788    0.00000000036265
H           2.28410653066601   -4.04294124573681   -0.00000000064962
H           4.04294124410314    2.28410653037172   -0.00000000027915
H          -2.28410653049084    4.04294124587822    0.00000000101984
NE          0.00000000016627   -0.00000000025677   -0.00000000275617
